850
ÐíÍ  0.000000
C  4.9700  0.0000 75.9643
C  6.3900  0.0000 75.9643
C  4.2600  1.2298 75.9643
C  7.1000  1.2298 75.9643
C  9.2300  0.0000 75.9643
C 10.6500  0.0000 75.9643
C  8.5200  1.2298 75.9643
C 11.3600  1.2298 75.9643
C 13.4900  0.0000 75.9643
C 14.9100  0.0000 75.9643
C 12.7800  1.2298 75.9643
C 15.6200  1.2298 75.9643
C 17.7500  0.0000 75.9643
C 19.1700  0.0000 75.9643
C 17.0400  1.2298 75.9643
C 19.8800  1.2298 75.9643
C 22.0100  0.0000 75.9643
C 23.4300  0.0000 75.9643
C 21.3000  1.2298 75.9643
C 24.1400  1.2298 75.9643
C 26.2700  0.0000 75.9643
C 27.6900  0.0000 75.9643
C 25.5600  1.2298 75.9643
C 28.4000  1.2298 75.9643
C 30.5300  0.0000 75.9643
C 31.9500  0.0000 75.9643
C 29.8200  1.2298 75.9643
C 32.6600  1.2298 75.9643
C  4.9700  2.4595 75.9643
C  6.3900  2.4595 75.9643
C  4.2600  3.6893 75.9643
C  7.1000  3.6893 75.9643
C  9.2300  2.4595 75.9643
C 10.6500  2.4595 75.9643
C  8.5200  3.6893 75.9643
C 11.2616  3.6592 75.5890
C 13.4075  2.4073 75.7628
C 14.7878  2.3255 75.7749
C 12.6280  3.5390 75.3942
C 15.4832  3.3192 75.3144
C 17.6922  2.3255 75.8330
C 19.0576  2.3097 75.8634
C 22.0217  2.3306 75.7862
C 23.4158  2.3641 75.7562
C 24.1354  3.4592 75.3470
C 26.2764  2.4246 75.8882
C 27.6900  2.4595 75.9643
C 25.5518  3.5574 75.5216
C 28.4112  3.6402 75.9227
C 30.5300  2.4595 75.9643
C 31.9500  2.4595 75.9643
C 29.8200  3.6893 75.9643
C 32.6600  3.6893 75.9643
C  4.9700  4.9190 75.9643
C  6.3900  4.9190 75.9643
C  4.2600  6.1488 75.9643
C  7.1000  6.1488 75.9643
C  9.1528  4.9004 75.7307
C 10.4824  4.8352 75.3418
C  8.4218  6.0962 75.7100
C 26.3387  4.6826 75.2940
C 27.7171  4.7957 75.6691
C 28.4821  5.9721 75.6605
C 30.5300  4.9190 75.9643
C 31.9500  4.9190 75.9643
C 29.8468  6.1231 75.9224
C 32.6600  6.1488 75.9643
C  4.9700  7.3785 75.9643
C  6.3900  7.3785 75.9643
C  4.2600  8.6083 75.9643
C  6.9383  8.6283 75.6998
C  8.8300  7.2988 75.1887
C  8.1486  8.5229 75.1650
C 27.9563  7.0850 75.1445
C 28.6693  8.2941 75.1604
C 30.5300  7.3785 75.9643
C 31.9500  7.3785 75.9643
C 29.9068  8.5442 75.6933
C 32.6600  8.6083 75.9643
C  4.9700  9.8380 75.9643
C  6.3048  9.8682 75.6963
C  4.2600 11.0678 75.9643
C  6.8606 11.1142 75.2819
C 30.5645  9.7801 75.7020
C 31.9500  9.8380 75.9643
C 29.9704 10.9698 75.2844
C 32.6600 11.0678 75.9643
C  4.9700 12.2976 75.9643
C  6.2603 12.3472 75.4888
C  4.2600 13.5273 75.9643
C  6.7310 13.6442 75.1666
C 30.6124 12.2379 75.5161
C 31.9500 12.2976 75.9643
C 30.0304 13.4952 75.2971
C 32.6600 13.5273 75.9643
C  4.9700 14.7571 75.9643
C  6.1756 14.8208 75.5145
C  4.2600 15.9868 75.9643
C  6.7684 16.0203 75.1713
C 30.6257 14.7263 75.6879
C 31.9500 14.7571 75.9643
C 30.0299 15.9778 75.6752
C 32.6600 15.9868 75.9643
C  4.9700 17.2166 75.9643
C  6.3175 17.3027 75.4622
C  4.2600 18.4463 75.9643
C  7.0665 18.5323 75.2120
C 28.6399 18.5242 75.6980
C 30.6107 17.2164 75.9044
C 31.9500 17.2166 75.9643
C 29.9451 18.4426 75.9181
C 32.6600 18.4463 75.9643
C  4.9700 19.6761 75.9643
C  6.4054 19.7217 75.6508
C  4.2600 20.9059 75.9643
C  7.1580 20.9402 75.6679
C  8.5984 21.0172 75.2857
C 27.9565 19.7353 75.7072
C 28.4813 20.9603 75.9286
C 30.5300 19.6761 75.9643
C 31.9500 19.6761 75.9643
C 29.8200 20.9059 75.9643
C 32.6600 20.9059 75.9643
C  4.9700 22.1356 75.9643
C  6.3900 22.1356 75.9643
C  4.2600 23.3654 75.9643
C  7.1000 23.3654 75.9643
C  9.3466 22.2032 75.5467
C 10.8327 22.3112 75.3337
C  8.5200 23.3654 75.9643
C 11.4447 23.4628 75.7052
C 12.7752 23.6298 75.3882
C 24.3232 23.4736 75.3392
C 26.4299 22.2373 75.7115
C 27.7715 22.1645 75.9233
C 25.6545 23.4013 75.7348
C 28.4000 23.3654 75.9643
C 30.5300 22.1356 75.9643
C 31.9500 22.1356 75.9643
C 29.8200 23.3654 75.9643
C 32.6600 23.3654 75.9643
C  4.9700 24.5951 75.9643
C  6.3900 24.5951 75.9643
C  4.2600 25.8249 75.9643
C  7.1000 25.8249 75.9643
C  9.2300 24.5951 75.9643
C 10.6500 24.5951 75.9643
C  8.5200 25.8249 75.9643
C 11.3600 25.8249 75.9643
C 13.5506 24.7195 75.6049
C 14.9423 24.8005 75.3381
C 12.7800 25.8249 75.9643
C 15.6558 25.9243 75.7026
C 17.8641 25.0096 75.1511
C 19.2548 24.9771 75.1425
C 17.0556 25.9832 75.6597
C 19.9657 25.9552 75.6910
C 22.1416 24.7519 75.3249
C 23.5165 24.6345 75.5679
C 21.3594 25.8789 75.7094
C 24.1400 25.8249 75.9643
C 26.2700 24.5951 75.9643
C 27.6900 24.5951 75.9643
C 25.5600 25.8249 75.9643
C 28.4000 25.8249 75.9643
C 30.5300 24.5951 75.9643
C 31.9500 24.5951 75.9643
C 29.8200 25.8249 75.9643
C 32.6600 25.8249 75.9643
C  4.9700 27.0546 75.9643
C  6.3900 27.0546 75.9643
C  4.2000 28.3883 75.9643
C  7.1000 28.2844 75.9643
C  9.2300 27.0546 75.9643
C 10.6500 27.0546 75.9643
C  8.5200 28.2844 75.9643
C 11.3600 28.2844 75.9643
C 13.4900 27.0546 75.9643
C 14.9100 27.0546 75.9643
C 12.7800 28.2844 75.9643
C 15.6200 28.2844 75.9643
C 17.7725 27.1072 75.9188
C 19.1700 27.0546 75.9643
C 17.0400 28.2844 75.9643
C 19.8800 28.2844 75.9643
C 22.0100 27.0546 75.9643
C 23.4300 27.0546 75.9643
C 21.3000 28.2844 75.9643
C 24.1400 28.2844 75.9643
C 26.2700 27.0546 75.9643
C 27.6900 27.0546 75.9643
C 25.5600 28.2844 75.9643
C 28.4000 28.2844 75.9643
C 30.5300 27.0546 75.9643
C 31.9500 27.0546 75.9643
C 29.8200 28.2844 75.9643
C 32.7200 28.3883 75.9643
C  4.9700  0.0000 60.0000
C  6.3900  0.0000 60.0000
C  4.2600  1.2298 60.0000
C  7.1000  1.2298 60.0000
C  9.2300  0.0000 60.0000
C 10.6500  0.0000 60.0000
C  8.5200  1.2298 60.0000
C 11.3600  1.2298 60.0000
C 13.4900  0.0000 60.0000
C 14.9100  0.0000 60.0000
C 12.7800  1.2298 60.0000
C 15.5376  1.1444 60.3574
C 17.7500  0.0000 60.0000
C 19.1700  0.0000 60.0000
C 16.9331  1.0466 60.3979
C 19.8685  1.0626 60.4138
C 22.0100  0.0000 60.0000
C 23.4300  0.0000 60.0000
C 21.2778  1.1131 60.3607
C 24.1400  1.2298 60.0000
C 26.2700  0.0000 60.0000
C 27.6900  0.0000 60.0000
C 25.5600  1.2298 60.0000
C 28.4000  1.2298 60.0000
C 30.5300  0.0000 60.0000
C 31.9500  0.0000 60.0000
C 29.8200  1.2298 60.0000
C 32.6600  1.2298 60.0000
C  4.9700  2.4595 60.0000
C  6.3900  2.4595 60.0000
C  4.2600  3.6893 60.0000
C  7.1000  3.6893 60.0000
C  9.2300  2.4595 60.0000
C 10.6500  2.4595 60.0000
C  8.5200  3.6893 60.0000
C 11.2123  3.5618 60.3875
C 13.3799  2.3763 60.4786
C 14.7398  2.2502 60.7585
C 12.4996  3.4491 60.7634
C 17.6208  2.0111 60.9759
C 19.0296  1.9864 60.9651
C 21.9972  2.2307 60.7420
C 23.4064  2.3410 60.4273
C 24.2017  3.4673 60.5744
C 26.2700  2.4595 60.0000
C 27.6900  2.4595 60.0000
C 25.5656  3.5932 60.1822
C 28.4000  3.6893 60.0000
C 30.5300  2.4595 60.0000
C 31.9500  2.4595 60.0000
C 29.8200  3.6893 60.0000
C 32.6600  3.6893 60.0000
C  4.9700  4.9190 60.0000
C  6.3900  4.9190 60.0000
C  4.2600  6.1488 60.0000
C  7.0864  6.1795 60.3060
C  9.1406  4.9188 60.4426
C 10.4769  4.6810 60.7265
C  8.4521  6.1704 60.7285
C 26.3282  4.7498 60.1675
C 27.6900  4.9190 60.0000
C 28.4000  6.1488 60.0000
C 30.5300  4.9190 60.0000
C 31.9500  4.9190 60.0000
C 29.8200  6.1488 60.0000
C 32.6600  6.1488 60.0000
C  4.9700  7.3785 60.0000
C  6.3726  7.4146 60.3228
C  4.2600  8.6083 60.0000
C  6.9722  8.6766 60.7566
C 27.7889  7.2799 60.1276
C 28.4798  8.4607 60.1077
C 30.5300  7.3785 60.0000
C 31.9500  7.3785 60.0000
C 29.8200  8.6083 60.0000
C 32.6600  8.6083 60.0000
C  4.9700  9.8380 60.0000
C  6.2865  9.8888 60.5164
C  4.2600 11.0678 60.0000
C  6.7432 11.2104 60.8215
C 30.5300  9.8380 60.0000
C 31.9500  9.8380 60.0000
C 29.9437 11.0218 60.1787
C 32.6600 11.0678 60.0000
C  4.9700 12.2976 60.0000
C  6.1651 12.3687 60.4507
C  4.2600 13.5273 60.0000
C  6.7130 13.5887 60.7753
C 30.6073 12.2448 60.2081
C 31.9500 12.2976 60.0000
C 30.0121 13.4177 60.6071
C 32.6600 13.5273 60.0000
C  4.9700 14.7571 60.0000
C  6.2671 14.8492 60.4694
C  4.2600 15.9868 60.0000
C  6.8989 16.1054 60.7066
C 30.6247 14.6924 60.4195
C 31.9500 14.7571 60.0000
C 30.0312 15.9270 60.6512
C 32.6600 15.9868 60.0000
C  4.9700 17.2166 60.0000
C  6.3116 17.2969 60.3008
C  4.2600 18.4463 60.0000
C  6.9571 18.5488 60.3443
C  8.2053 18.7591 60.8460
C 28.7626 18.5260 60.7852
C 30.6146 17.1812 60.2767
C 31.9500 17.2166 60.0000
C 29.9935 18.4328 60.2874
C 32.6600 18.4463 60.0000
C  4.9700 19.6761 60.0000
C  6.3430 19.7417 60.0972
C  4.2600 20.9059 60.0000
C  7.0583 20.9529 60.0894
C  8.9350 19.9536 60.8291
C  8.4260 21.0654 60.3079
C 28.0788 19.7521 60.7664
C 28.4971 20.9551 60.2545
C 30.5619 19.6860 60.0396
C 31.9500 19.6761 60.0000
C 29.8200 20.9059 60.0000
C 32.6600 20.9059 60.0000
C  4.9700 22.1356 60.0000
C  6.3900 22.1356 60.0000
C  4.2600 23.3654 60.0000
C  7.1000 23.3654 60.0000
C  9.2102 22.2168 60.2486
C 10.5887 22.3291 60.5993
C  8.5200 23.3654 60.0000
C 11.3706 23.4512 60.3481
C 12.7790 23.5652 60.5356
C 21.4697 23.8355 60.5740
C 24.3204 23.5576 60.5833
C 27.7674 22.1533 60.2458
C 25.6876 23.4178 60.4303
C 28.4000 23.3654 60.0000
C 30.5300 22.1356 60.0000
C 31.9500 22.1356 60.0000
C 29.8200 23.3654 60.0000
C 32.6600 23.3654 60.0000
C  4.9700 24.5951 60.0000
C  6.3900 24.5951 60.0000
C  4.2600 25.8249 60.0000
C  7.1000 25.8249 60.0000
C  9.2300 24.5951 60.0000
C 10.6500 24.5951 60.0000
C  8.5200 25.8249 60.0000
C 11.3600 25.8249 60.0000
C 13.4922 24.6800 60.1560
C 14.8772 24.7374 60.1287
C 12.7800 25.8249 60.0000
C 15.6200 25.8249 60.0000
C 17.8902 24.8293 60.0415
C 19.2812 24.8591 60.0280
C 17.0400 25.8249 60.0000
C 19.9777 25.9554 59.9433
C 22.1971 24.8114 60.1427
C 23.5776 24.7092 60.2045
C 21.3719 25.9123 59.9754
C 24.2205 25.8835 60.0310
C 26.3151 24.6173 60.0866
C 27.6900 24.5951 60.0000
C 25.6047 25.8409 60.0289
C 28.4000 25.8249 60.0000
C 30.5300 24.5951 60.0000
C 31.9500 24.5951 60.0000
C 29.8200 25.8249 60.0000
C 32.6600 25.8249 60.0000
C  4.9700 27.0546 60.0000
C  6.3900 27.0546 60.0000
C  4.2000 28.3883 60.0000
C  7.1000 28.2844 60.0000
C  9.2300 27.0546 60.0000
C 10.6500 27.0546 60.0000
C  8.5200 28.2844 60.0000
C 11.3600 28.2844 60.0000
C 13.4900 27.0546 60.0000
C 14.9100 27.0546 60.0000
C 12.7800 28.2844 60.0000
C 15.6200 28.2844 60.0000
C 17.7500 27.0546 60.0000
C 19.1700 27.0546 60.0000
C 17.0400 28.2844 60.0000
C 19.8800 28.2844 60.0000
C 22.0100 27.0546 60.0000
C 23.4300 27.0546 60.0000
C 21.3000 28.2844 60.0000
C 24.1400 28.2844 60.0000
C 26.2700 27.0546 60.0000
C 27.6900 27.0546 60.0000
C 25.5600 28.2844 60.0000
C 28.4000 28.2844 60.0000
C 30.5300 27.0546 60.0000
C 31.9500 27.0546 60.0000
C 29.8200 28.2844 60.0000
C 32.7200 28.3883 60.0000
C 28.9751 16.0879 61.5075
C 28.4676 17.3914 61.5316
C 27.0212 19.9610 61.5439
C 26.1964 21.0994 61.4811
C 23.5649 22.8225 61.4465
C 22.2219 23.1336 61.4417
C 20.1161 23.9386 60.5166
C 19.3703 23.5378 61.4645
C 18.0120 23.5956 61.3972
C 17.1284 23.9302 60.5014
C 15.7450 23.8436 60.5521
C 15.0459 23.2323 61.4555
C 13.6739 22.9692 61.4298
C 10.9522 21.3495 61.4907
C 10.0647 20.2626 61.5532
C  8.5297 17.7245 61.6231
C  7.9506 16.4405 61.5631
C  7.5918 13.2233 61.6775
C  7.6126 11.8168 61.6796
C  8.1566  8.6161 61.5675
C  8.8723  7.3565 61.5438
C 11.2960  5.2655 61.6319
C 12.4723  4.4851 61.6380
C 15.3965  3.0529 61.6312
C 16.7825  2.8351 61.6908
C 19.7452  2.8026 61.6993
C 21.1368  2.9601 61.5811
C 23.9274  4.4559 61.4594
C 24.8336  5.5013 61.4678
C 25.8373  5.8538 60.6361
C 26.5718  7.0083 60.6236
C 26.4924  7.8936 61.5567
C 27.1920  9.0703 61.5208
C 28.5141 11.6637 61.5143
C 29.0245 12.9471 61.4694
C 28.7398 13.6688 62.5449
C 28.6812 15.0733 62.4919
C 28.3438 15.6388 63.6841
C 27.9532 17.0007 63.6841
C 27.7792 17.8083 62.5779
C 27.1181 19.0275 62.5531
C 26.6261 19.4967 63.6841
C 25.7154 20.5820 63.6841
C 25.3031 21.2783 62.5136
C 24.1620 22.1003 62.4960
C 23.4878 22.3224 63.6841
C 22.2144 22.9435 63.6841
C 21.4987 23.1322 62.5541
C 20.1443 23.4184 62.5593
C 19.4716 23.6273 63.6841
C 18.0556 23.6768 63.6841
C 17.3484 23.6273 62.4560
C 15.9334 23.3317 62.5140
C 15.2717 23.1859 63.6841
C 13.9580 22.6552 63.6841
C 13.1534 22.3952 62.5290
C 11.9635 21.6306 62.4815
C 11.6145 21.0744 63.6841
C 10.6303 20.0552 63.6841
C 10.0188 19.4656 62.6083
C  9.2845 18.2706 62.6287
C  9.1046 17.5906 63.7646
C  8.6127 16.2763 63.7207
C  8.2325 15.5513 62.5732
C  8.0561 14.1431 62.5966
C  8.2262 13.4464 63.7503
C  8.3106 12.0190 63.7252
C  8.1816 11.1164 62.6305
C  8.4607  9.7234 62.5264
C  9.0557  9.3078 63.7073
C  9.7975  8.1456 63.6841
C  9.9126  7.2410 62.5395
C 10.9184  6.2291 62.5669
C 11.6251  5.9332 63.7226
C 12.7633  5.0696 63.7237
C 13.3785  4.4679 62.6111
C 14.6523  3.8329 62.5672
C 15.3243  3.8200 63.7481
C 16.6850  3.5115 63.7674
C 17.4998  3.2448 62.7040
C 18.8945  3.2068 62.6865
C 19.5682  3.4190 63.7916
C 20.9448  3.6432 63.7279
C 21.7368  3.6668 62.5597
C 22.9921  4.2725 62.4988
C 23.4878  4.7322 63.6841
C 24.6625  5.5245 63.6841
C 25.1470  6.1319 62.5818
C 25.9854  7.2419 62.6294
C 26.4910  7.7202 63.7743
C 27.2252  8.9179 63.7489
C 27.4661  9.7071 62.6180
C 28.0449 10.9508 62.5873
C 28.3015 11.4884 63.7453
C 28.5409 12.8189 63.6841
C 28.5657 13.5273 64.9121
C 28.4668 14.9407 64.9121
C 28.3438 15.6388 66.1401
C 27.9532 17.0007 66.1401
C 27.6877 17.6580 64.9121
C 27.0225 18.9090 64.9121
C 26.6261 19.4967 66.1401
C 25.7154 20.5820 66.1401
C 25.2055 21.0744 64.9121
C 24.0890 21.9467 64.9121
C 23.4878 22.3224 66.1401
C 22.2144 22.9435 66.1401
C 21.5483 23.1859 64.9121
C 20.1735 23.5287 64.9121
C 19.4716 23.6273 66.1401
C 18.0556 23.6768 66.1401
C 17.3484 23.6273 64.9121
C 15.9531 23.3813 64.9121
C 15.2717 23.1859 66.1401
C 13.9580 22.6552 66.1401
C 13.3322 22.3224 64.9121
C 12.1575 21.5301 64.9121
C 11.6145 21.0744 66.1401
C 10.6303 20.0552 66.1401
C 10.1939 19.4967 64.9121
C  9.4431 18.2951 64.9121
C  9.1323 17.6580 66.1401
C  8.6477 16.3266 66.1401
C  8.4762 15.6388 64.9121
C  8.2791 14.2357 64.9121
C  8.2543 13.5273 66.1401
C  8.3532 12.1139 66.1401
C  8.4762 11.4158 64.9121
C  8.8668 10.0539 64.9121
C  9.1323  9.3966 66.1401
C  9.7975  8.1456 66.1401
C 10.1939  7.5579 64.9121
C 11.1046  6.4726 64.9121
C 11.6145  5.9802 66.1401
C 12.7310  5.1079 66.1401
C 13.3322  4.7322 64.9121
C 14.6056  4.1111 64.9121
C 15.2717  3.8687 66.1401
C 16.6465  3.5259 66.1401
C 17.3484  3.4273 64.9121
C 18.7644  3.3778 64.9121
C 19.4716  3.4273 66.1401
C 20.8669  3.6733 66.1401
C 21.5483  3.8687 64.9121
C 22.8620  4.3994 64.9121
C 23.4878  4.7322 66.1401
C 24.6625  5.5245 66.1401
C 25.2055  5.9802 64.9121
C 26.1897  6.9994 64.9121
C 26.6261  7.5579 66.1401
C 27.3769  8.7595 66.1401
C 27.6877  9.3966 64.9121
C 28.1723 10.7280 64.9121
C 28.3438 11.4158 66.1401
C 28.5409 12.8189 66.1401
C 28.5657 13.5273 67.3681
C 28.4668 14.9407 67.3681
C 28.3438 15.6388 68.5962
C 27.9532 17.0007 68.5962
C 27.6877 17.6580 67.3681
C 27.0225 18.9090 67.3681
C 26.6261 19.4967 68.5962
C 25.7154 20.5820 68.5962
C 25.2055 21.0744 67.3681
C 24.0890 21.9467 67.3681
C 23.4878 22.3224 68.5962
C 22.2144 22.9435 68.5962
C 21.5483 23.1859 67.3681
C 20.1735 23.5287 67.3681
C 19.4716 23.6273 68.5962
C 18.0556 23.6768 68.5962
C 17.3484 23.6273 67.3681
C 15.9531 23.3813 67.3681
C 15.2717 23.1859 68.5962
C 13.9580 22.6552 68.5962
C 13.3322 22.3224 67.3681
C 12.1575 21.5301 67.3681
C 11.6145 21.0744 68.5962
C 10.6303 20.0552 68.5962
C 10.1939 19.4967 67.3681
C  9.4431 18.2951 67.3681
C  9.1323 17.6580 68.5962
C  8.6477 16.3266 68.5962
C  8.4762 15.6388 67.3681
C  8.2791 14.2357 67.3681
C  8.2543 13.5273 68.5962
C  8.3532 12.1139 68.5962
C  8.4762 11.4158 67.3681
C  8.8668 10.0539 67.3681
C  9.1323  9.3966 68.5962
C  9.7975  8.1456 68.5962
C 10.1939  7.5579 67.3681
C 11.1046  6.4726 67.3681
C 11.6145  5.9802 68.5962
C 12.7310  5.1079 68.5962
C 13.3322  4.7322 67.3681
C 14.6056  4.1111 67.3681
C 15.2717  3.8687 68.5962
C 16.6465  3.5259 68.5962
C 17.3484  3.4273 67.3681
C 18.7644  3.3778 67.3681
C 19.4716  3.4273 68.5962
C 20.8669  3.6733 68.5962
C 21.5483  3.8687 67.3681
C 22.8620  4.3994 67.3681
C 23.4878  4.7322 68.5962
C 24.6625  5.5245 68.5962
C 25.2055  5.9802 67.3681
C 26.1897  6.9994 67.3681
C 26.6261  7.5579 68.5962
C 27.3769  8.7595 68.5962
C 27.6877  9.3966 67.3681
C 28.1723 10.7280 67.3681
C 28.3438 11.4158 68.5962
C 28.5409 12.8189 68.5962
C 28.5657 13.5273 69.8242
C 28.4668 14.9407 69.8242
C 28.1748 15.5984 70.9837
C 27.7550 16.9313 70.9689
C 27.6877 17.6580 69.8242
C 27.0225 18.9090 69.8242
C 26.4177 19.4396 70.9569
C 25.5379 20.5276 70.9947
C 25.2055 21.0744 69.8242
C 24.0616 21.9350 69.8112
C 23.3791 22.3175 70.9899
C 22.1439 22.9417 71.0267
C 21.5483 23.1859 69.8242
C 20.1735 23.5287 69.8242
C 19.4439 23.6121 71.0079
C 18.0556 23.6768 71.0522
C 17.3484 23.6273 69.8242
C 15.9531 23.3813 69.8242
C 15.2717 23.1859 71.0522
C 13.9580 22.6552 71.0522
C 13.3322 22.3224 69.8242
C 12.1575 21.5301 69.8242
C 11.6145 21.0744 71.0522
C 10.6303 20.0552 71.0522
C 10.1939 19.4967 69.8242
C  9.4431 18.2951 69.8242
C  9.1040 17.6700 71.0518
C  8.6408 16.3296 71.0303
C  8.4762 15.6388 69.8242
C  8.2791 14.2357 69.8242
C  8.2543 13.5273 71.0522
C  8.3532 12.1139 71.0522
C  8.4762 11.4158 69.8242
C  8.8668 10.0539 69.8242
C  9.1323  9.3966 71.0522
C  9.7975  8.1456 71.0522
C 10.1939  7.5579 69.8242
C 11.1046  6.4726 69.8242
C 11.6145  5.9802 71.0522
C 12.7374  5.1253 71.0320
C 13.3322  4.7322 69.8242
C 14.6056  4.1111 69.8242
C 15.2717  3.8687 71.0522
C 16.6465  3.5259 71.0522
C 17.3484  3.4273 69.8242
C 18.7644  3.3778 69.8242
C 19.4716  3.4273 71.0522
C 20.8669  3.6733 71.0522
C 21.5483  3.8687 69.8242
C 22.8620  4.3994 69.8242
C 23.4878  4.7322 71.0522
C 24.6625  5.5245 71.0522
C 25.2055  5.9802 69.8242
C 26.1897  6.9994 69.8242
C 26.6261  7.5579 71.0522
C 27.3769  8.7595 71.0522
C 27.6877  9.3966 69.8242
C 28.1723 10.7280 69.8242
C 28.3198 11.4162 71.0316
C 28.4901 12.8051 71.0145
C 28.4668 13.5100 72.2041
C 28.2293 14.8779 72.1427
C 28.0143 15.6085 73.2617
C 27.4809 16.8797 73.2349
C 27.2577 17.5401 72.0928
C 26.5956 18.7668 72.1021
C 26.1094 19.3939 73.2218
C 25.3210 20.5293 73.2731
C 24.8990 21.0368 72.1287
C 23.8748 21.9768 72.2030
C 23.3334 22.5570 73.3840
C 22.1157 23.2383 73.4220
C 21.4545 23.2475 72.2142
C 20.1028 23.5516 72.1883
C 19.3411 23.8055 73.3081
C 17.9544 23.8359 73.3346
C 17.2802 23.6373 72.2018
C 15.9041 23.4049 72.2513
C 15.1478 23.3676 73.4423
C 13.8890 22.7725 73.4702
C 13.3322 22.3224 72.2802
C 12.1575 21.5301 72.2802
C 11.6145 21.0744 73.5083
C 10.3480 20.2162 73.5235
C 10.0707 19.5567 72.2844
C  9.2785 18.3636 72.2786
C  8.6373 17.7938 73.4254
C  8.2924 16.4071 73.3640
C  8.4109 15.6280 72.2190
C  8.2526 14.2025 72.2295
C  8.0535 13.3722 73.3460
C  8.1611 11.9507 73.4204
C  8.4728 11.3508 72.2316
C  8.8868 10.0124 72.2220
C  9.0857  9.2023 73.3262
C  9.7526  7.9727 73.3467
C 10.2361  7.4861 72.2015
C 11.1225  6.4031 72.2527
C 11.5515  5.7440 73.4303
C 12.7118  4.9656 73.4410
C 13.3591  4.7665 72.2317
C 14.6366  4.2119 72.2000
C 15.3839  4.0726 73.3315
C 16.7506  3.8636 73.3174
C 17.4132  3.6332 72.1800
C 18.8006  3.5742 72.2069
C 19.5461  3.7618 73.3533
C 20.9396  3.8640 73.4135
C 21.5483  3.8687 72.2802
C 22.9058  4.4038 72.2705
C 23.7458  4.6698 73.3998
C 24.9547  5.4163 73.4361
C 25.2903  5.9829 72.2325
C 26.2366  7.0148 72.2216
C 26.8575  7.5746 73.3260
C 27.5800  8.7683 73.3435
C 27.7265  9.4411 72.2038
C 28.1960 10.7423 72.2492
C 28.5851 11.4495 73.4083
C 28.6665 12.8479 73.4046
C 29.0118 13.7618 74.4123
C 28.5473 15.0680 74.3615
C 27.3181 17.6970 74.2906
C 26.6559 18.8902 74.3040
C 25.0515 21.3241 74.3586
C 24.1788 22.4084 74.4391
C 21.4359 23.9762 74.4284
C 20.0599 24.1784 74.3697
C 17.1401 24.2118 74.3713
C 15.7584 24.0556 74.4644
C 12.9719 22.6510 74.5056
C 11.8639 21.8454 74.5254
C  9.1559 19.9595 74.4562
C  8.3193 18.7556 74.4332
C  7.6793 15.5873 74.2885
C  7.6108 14.1800 74.2971
C  7.8901 10.9406 74.4057
C  8.4153  9.6382 74.3843
C  9.8622  7.0672 74.3860
C 10.6847  5.9326 74.4729
C 13.3432  4.2718 74.4901
C 14.6924  4.0216 74.4673
C 16.8363  3.2601 75.3575
C 17.5430  3.7610 74.4127
C 18.8988  3.7293 74.4599
C 21.8407  3.8604 74.4568
C 23.2282  4.0742 74.4813
C 25.9696  5.6760 74.4243
C 26.8416  6.7705 74.3827
C 28.3360  9.3101 74.3658
C 28.9023 10.5985 74.4351
C 26.0400 21.0656 75.1945
C 26.7621 19.8948 75.1765
C 28.2145 17.3543 75.1764
C 28.8301 16.1278 75.1607
C 21.1527  3.2474 75.3502
C 19.7744  3.2503 75.3607
C 28.0394  9.5612 60.6111
C 28.7197 10.7487 60.6332
C 26.4390 22.2198 60.6499
H 10.8058 20.4321 74.3859
H  8.7299 17.2053 74.2286
H  8.7724 17.1604 73.8136
H 13.7434 22.0407 74.6853
H 12.1654 21.0468 75.0463
H 28.1293 14.3621 74.9334
H 24.0974 21.3162 74.6580
H 20.5442 23.6198 75.0431
H 16.6134 23.4463 74.7409
H 15.8924 23.4659 75.2609
F 26.3278 19.2658 76.6554
H 23.7271 22.0244 75.2444
H 21.4294 23.0942 74.8996
H 25.1843  6.1923 74.7660
H 26.1857  6.5987 75.1177
F 27.6484 17.0545 76.4990
F 28.1375 15.6577 76.4990
F 15.9394  4.4169 76.2128
F 24.8259  4.5451 76.0980
F 27.4144  8.1899 75.9845
F 27.8858  7.8409 76.3440
F 16.3096  3.9887 76.5457
F 20.5445  3.9207 76.5321
F 20.3757  4.3367 76.1843
F 13.1797  4.8829 76.1046
F 10.7847  5.8919 76.6710
F 10.0754  7.9213 75.7237
F  9.0641  9.2665 76.1631
F  7.2758 11.8062 76.5345
F  8.0146 13.8797 75.3035
F  7.8083 16.1690 75.6164
F  8.3576 18.9251 75.4373
H 10.0469 19.5926 74.7237
H  8.5871 18.7652 75.3966
F 23.0911 23.4782 76.1770
F 25.4889 20.8452 76.5652
F 18.6103 24.5178 76.3433
F 18.5523 23.9550 75.9683
F 22.5881 23.9350 76.4882
F 25.5641  4.7125 76.5665
F  9.1611 20.4991 76.5644
F 10.2384 21.0317 75.8131
F 13.7636 23.8367 76.4838
F 14.9565 23.4602 75.8349
H 28.2766 13.3174 74.9242
F 29.4477 13.0512 76.4795
F 28.7267 11.6929 76.3267
F 24.7317 22.7686 59.3882
F 25.1341 22.2297 59.9308
H 21.1761 23.1128 59.9483
H 20.5014 23.4063 59.7628
H 16.6584 23.2814 59.9029
H 16.1671 23.2789 59.8429
F  9.7704 19.3399 59.8828
F 11.3773 22.2440 59.3379
F 12.8255 23.1428 59.2811
F 13.9191 24.3008 59.0744
F 18.0027 24.6269 58.4346
F 19.3961 24.3923 58.3056
F 22.9859 24.9822 58.8902
F  6.4700 11.1946 59.3420
F  6.9454 14.6660 59.7726
F  7.4817 14.9889 59.9105
F  8.5671 18.5937 59.6017
F 14.2152  2.9612 59.5588
F 13.0958  3.7317 59.3457
F 17.8547  2.7443 59.3452
F 19.1201  2.1524 59.6452
F 11.0039  5.8143 59.7737
F  9.2862  7.1105 59.6305
F  7.7843  9.2170 59.6303
F 22.2307  2.4465 59.4707
F 23.3751  3.4411 59.3350
F 25.2265  5.9494 58.9469
F 25.7404  6.9407 59.1129
H 27.9969 12.5002 61.3333
F 27.2816  9.9826 59.7259
F 29.4239 14.5589 59.8510
F 29.6267 15.2580 59.3827
F 27.7529 17.9031 60.1203
F 27.3623 19.4902 58.9825
F 27.8017 11.0612 59.4057
