330
29.820  0.000000
C  4.9700  0.0000 60.0000
C  6.3900  0.0000 60.0000
C  4.2600  1.2298 60.0000
C  7.1000  1.2298 60.0000
C  9.2300  0.0000 60.0000
C 10.6500  0.0000 60.0000
C  8.5200  1.2298 60.0000
C 11.3600  1.2298 60.0000
C 13.4900  0.0000 60.0000
C 14.9100  0.0000 60.0000
C 12.7800  1.2298 60.0000
C 15.6200  1.2298 60.0000
C 17.7500  0.0000 60.0000
C 19.1700  0.0000 60.0000
C 17.0400  1.2298 60.0000
C 19.8800  1.2298 60.0000
C 22.0100  0.0000 60.0000
C 23.4300  0.0000 60.0000
C 21.3000  1.2298 60.0000
C 24.1400  1.2298 60.0000
C 26.2700  0.0000 60.0000
C 27.6900  0.0000 60.0000
C 25.5600  1.2298 60.0000
C 28.4000  1.2298 60.0000
C 30.5300  0.0000 60.0000
C 31.9500  0.0000 60.0000
C 29.8200  1.2298 60.0000
C 32.6600  1.2298 60.0000
C  4.9700  2.4595 60.0000
C  6.4599  2.4757 60.0000
C  4.2600  3.6893 60.0000
C  7.1647  3.7062 60.0073
C  9.2667  2.5443 60.0000
C 10.6555  2.5459 60.0000
C  8.5623  3.7408 60.0099
C 11.3694  3.7422 60.0125
C 13.5004  2.5366 60.0092
C 14.8966  2.5321 60.0104
C 12.7751  3.7311 60.0187
C 15.6206  3.7219 60.0285
C 17.7625  2.5254 60.0132
C 19.1604  2.5159 60.0069
C 17.0370  3.7174 60.0334
C 19.9022  3.6914 60.0019
C 22.0200  2.4393 59.9985
C 23.4366  2.4373 59.9941
C 21.3198  3.6573 59.9998
C 24.1572  3.6466 59.9895
C 26.2629  2.4500 60.0000
C 27.6740  2.4490 60.0000
C 25.5630  3.6612 59.9933
C 28.3596  3.6757 59.9979
C 30.4662  2.4684 60.0000
C 31.9500  2.4595 60.0000
C 29.7532  3.6868 60.0001
C 32.6600  3.6893 60.0000
C  4.9700  4.9190 60.0000
C  6.4790  4.9295 60.0123
C  4.2600  6.1488 60.0000
C  7.1666  6.1574 60.0292
C  9.2569  4.9528 60.0251
C 10.6546  4.9467 60.0253
C  8.5579  6.1651 60.0413
C 11.3406  6.1551 60.0428
C 13.4758  4.9308 60.0412
C 14.8913  4.9138 60.0494
C 12.7368  6.1276 60.0491
C 15.5946  6.1053 60.1136
C 17.7623  4.9086 60.0483
C 19.1912  4.8933 60.0111
C 17.0288  6.1036 60.0902
C 19.9404  6.0738 59.9915
C 22.0574  4.8497 59.9864
C 23.4689  4.8600 59.9772
C 21.3671  6.0544 59.9461
C 24.2034  6.0673 59.9683
C 26.2737  4.8773 59.9874
C 27.6685  4.8936 59.9901
C 25.5981  6.0960 59.9754
C 28.3622  6.1212 59.9843
C 30.4321  4.9183 60.0001
C 31.9500  4.9190 60.0000
C 29.7484  6.1407 59.9957
C 32.6600  6.1488 60.0000
C  4.9700  7.3785 60.0000
C  6.4724  7.3795 60.0303
C  4.2600  8.6083 60.0000
C  7.1501  8.6077 60.0506
C  9.2400  7.3847 60.0667
C 10.6342  7.3728 60.0710
C  8.5378  8.6041 60.0762
C 11.3098  8.5925 60.0810
C 13.4082  7.3288 60.0871
C 14.7892  7.2521 60.2025
C 12.7085  8.5648 60.0529
C 17.8211  7.2570 60.0710
C 19.1768  7.2407 60.0657
C 22.1550  7.2104 59.8273
C 23.5407  7.2806 59.9307
C 24.2538  8.5134 59.9814
C 26.3054  7.3221 59.9574
C 27.6938  7.3472 59.9665
C 25.6464  8.5491 59.9565
C 28.3951  8.5774 59.9662
C 30.4316  7.3730 59.9999
C 31.9500  7.3785 60.0000
C 29.7765  8.6001 59.9860
C 32.6600  8.6083 60.0000
C  4.9700  9.8380 60.0000
C  6.4582  9.8348 60.0399
C  4.2600 11.0678 60.0000
C  7.1293 11.0672 60.0560
C  9.2054  9.8308 60.0993
C 10.5911  9.8159 60.1030
C  8.5114 11.0605 60.0868
C 11.2336 11.0528 60.1063
C 13.3003  9.8300 59.9047
C 12.6029 10.9784 59.9291
C 23.6767  9.7779 60.1552
C 24.3616 10.9324 60.1407
C 26.3638  9.7812 59.9499
C 27.7459  9.8094 59.9525
C 25.7312 11.0215 59.9599
C 28.4500 11.0423 59.9709
C 30.4814  9.8244 59.9914
C 31.9500  9.8380 60.0000
C 29.8317 11.0609 59.9903
C 32.6600 11.0678 60.0000
C  4.9700 12.2976 60.0000
C  6.4493 12.3005 60.0428
C  4.2600 13.5273 60.0000
C  7.1247 13.5365 60.0633
C  9.1707 12.2964 60.1116
C 10.5415 12.2877 60.1679
C  8.5037 13.5374 60.1035
C 11.1615 13.5365 60.2921
C 26.4334 12.2584 59.9054
C 27.8035 12.2803 59.9561
C 25.8169 13.5042 59.7917
C 28.4787 13.5236 59.9675
C 30.5310 12.2933 60.0007
C 31.9500 12.2976 60.0000
C 29.8640 13.5289 59.9912
C 32.6600 13.5273 60.0000
C  4.9700 14.7571 60.0000
C  6.4543 14.7692 60.0454
C  4.2600 15.9868 60.0000
C  7.1428 16.0014 60.0638
C  9.1807 14.7757 60.1146
C 10.5534 14.7845 60.1679
C  8.5264 16.0113 60.0968
C 11.2708 16.0101 60.1225
C 12.6557 16.0756 59.9592
C 24.2865 16.0533 60.0234
C 26.4188 14.7622 59.9118
C 27.8008 14.7620 59.9661
C 25.6890 15.9862 59.9519
C 28.4712 15.9958 59.9827
C 30.5544 14.7586 59.9947
C 31.9500 14.7571 60.0000
C 29.8683 15.9921 59.9914
C 32.6600 15.9868 60.0000
C  4.9700 17.2166 60.0000
C  6.4694 17.2293 60.0477
C  4.2600 18.4463 60.0000
C  7.1637 18.4559 60.0650
C  9.2283 17.2380 60.1190
C 10.6198 17.2492 60.1306
C  8.5555 18.4651 60.0995
C 11.3335 18.4766 60.1245
C 13.3406 17.2487 59.9516
C 12.7336 18.5032 60.1058
C 23.5950 17.2223 60.0436
C 24.2260 18.4839 60.0553
C 26.3555 17.2241 59.9775
C 27.7590 17.2184 59.9778
C 25.6338 18.4515 60.0131
C 28.4427 18.4447 59.9878
C 30.5516 17.2208 59.9951
C 31.9500 17.2166 60.0000
C 29.8484 18.4455 59.9922
C 32.6600 18.4463 60.0000
C  4.9700 19.6761 60.0000
C  6.4827 19.6806 60.0411
C  4.2600 20.9059 60.0000
C  7.1749 20.9047 60.0447
C  9.2568 19.6884 60.0986
C 10.6539 19.6982 60.1142
C  8.5708 20.9106 60.0687
C 11.3612 20.9173 60.0889
C 13.4517 19.7334 60.1373
C 14.8514 19.8268 60.2175
C 12.7627 20.9382 60.0948
C 15.6081 20.9889 60.0964
C 17.8297 19.8403 59.8808
C 19.1731 19.8679 59.8790
C 17.0314 20.9823 60.0422
C 19.9402 21.0137 60.0422
C 22.1467 19.8505 60.1807
C 23.5320 19.7346 60.0798
C 21.3647 21.0053 60.0879
C 24.2114 20.9342 60.0263
C 26.3201 19.6723 60.0042
C 27.7235 19.6602 59.9916
C 25.6098 20.8957 60.0049
C 28.4050 20.8823 59.9909
C 30.5379 19.6722 59.9953
C 31.9500 19.6761 60.0000
C 29.8061 20.8821 59.9930
C 32.6600 20.9059 60.0000
C  4.9700 22.1356 60.0000
C  6.4881 22.1270 60.0227
C  4.2600 23.3654 60.0000
C  7.1809 23.3456 60.0204
C  9.2706 22.1314 60.0567
C 10.6696 22.1311 60.0659
C  8.5782 23.3532 60.0334
C 11.3773 23.3414 60.0497
C 13.4862 22.1471 60.0760
C 14.8981 22.1742 60.0671
C 12.7836 23.3491 60.0539
C 15.6253 23.3660 60.0498
C 17.7640 22.1763 60.0601
C 19.1894 22.1879 60.0608
C 17.0416 23.3685 60.0614
C 19.9061 23.3776 60.0595
C 22.0645 22.1852 60.0479
C 23.4764 22.1424 60.0317
C 21.3238 23.3716 60.0408
C 24.1688 23.3409 60.0121
C 26.2911 22.1087 59.9965
C 27.6891 22.0972 59.9924
C 25.5737 23.3199 60.0002
C 28.3710 23.3172 59.9925
C 30.4675 22.1137 59.9948
C 31.9500 22.1356 60.0000
C 29.7661 23.3228 59.9940
C 32.6600 23.3654 60.0000
C  4.9700 24.5951 60.0000
C  6.4878 24.5608 60.0079
C  4.2600 25.8249 60.0000
C  7.1747 25.7699 60.0053
C  9.2742 24.5762 60.0233
C 10.6751 24.5514 60.0305
C  8.5708 25.8033 60.0086
C 11.3871 25.7462 60.0175
C 13.4992 24.5524 60.0350
C 14.9102 24.5603 60.0361
C 12.7782 25.7477 60.0186
C 15.6347 25.7521 60.0224
C 17.7616 24.5642 60.0489
C 19.1774 24.5667 60.0484
C 17.0318 25.7534 60.0270
C 19.9007 25.7559 60.0258
C 22.0318 24.5635 60.0232
C 23.4428 24.5420 60.0117
C 21.2988 25.7545 60.0186
C 24.1556 25.7337 60.0018
C 26.2661 24.5287 59.9966
C 27.6685 24.5300 59.9944
C 25.5480 25.7296 59.9988
C 28.3827 25.7364 59.9960
C 30.4564 24.5409 59.9962
C 31.9500 24.5951 60.0000
C 29.7669 25.7392 59.9967
C 32.6600 25.8249 60.0000
C  4.9700 27.0546 60.0000
C  6.3900 27.0546 60.0000
C  4.2000 28.3883 60.0000
C  7.1000 28.2844 60.0000
C  9.2300 27.0546 60.0000
C 10.6500 27.0546 60.0000
C  8.5200 28.2844 60.0000
C 11.3600 28.2844 60.0000
C 13.4900 27.0546 60.0000
C 14.9100 27.0546 60.0000
C 12.7800 28.2844 60.0000
C 15.6200 28.2844 60.0000
C 17.7500 27.0546 60.0000
C 19.1700 27.0546 60.0000
C 17.0400 28.2844 60.0000
C 19.8800 28.2844 60.0000
C 22.0100 27.0546 60.0000
C 23.4300 27.0546 60.0000
C 21.3000 28.2844 60.0000
C 24.1400 28.2844 60.0000
C 26.2700 27.0546 60.0000
C 27.6900 27.0546 60.0000
C 25.5600 28.2844 60.0000
C 28.4000 28.2844 60.0000
C 30.5300 27.0546 60.0000
C 31.9500 27.0546 60.0000
C 29.8200 28.2844 60.0000
C 32.7200 28.3883 60.0000
O 15.2767  8.2911 60.5346
O 17.3462  8.5312 60.0103
O 19.6737  8.4796 60.2069
O 21.5596  8.2757 59.4466
O 14.6058 10.2019 59.6420
O 13.4143 12.0522 59.6695
O 22.3756 10.1197 60.4315
O 23.5260 11.9967 60.4060
O 12.3686 13.5767 60.7194
O 24.6351 13.5097 59.4037
O 13.4712 14.9931 59.6979
O 23.4014 14.9745 60.1513
O 14.6863 17.0475 59.7004
O 22.1996 16.9497 60.0086
O 15.5353 18.8175 60.5760
O 17.5014 18.5301 59.6229
O 19.6778 18.6097 59.6186
O 21.6150 18.8659 60.4788
H 14.9730 18.1045 60.8621
H 16.5943 18.4015 59.4830
H 19.0201 17.9303 59.5188
H 20.7505 18.9917 60.7337
H 18.0029  9.1932 59.9489
H 19.0415  9.1423 60.3121
H 22.1355  8.9787 59.1890
H 15.1734  9.4788 59.4940
H 14.3305 11.8227 59.5387
H 21.8237  9.3732 60.5857
H 22.6095 11.7525 60.5224
H 12.6886 12.7284 60.9620
H 24.3135 12.6723 59.1545
H 14.3437 15.2362 59.5942
H 22.5223 15.2223 60.2593
H 21.9862 16.0500 59.9346
H 16.1196  8.1140 60.8435
H 14.9441 16.1348 59.6104
