352
generated  0.000000
C 26.0347 13.5711 60.0674
C 25.9090 14.9180 60.0671
C 25.6058 15.6255 61.2280
C 25.0796 16.9399 61.2280
C 24.7475 17.6155 60.0554
C 23.9199 18.6782 60.0555
C 23.3371 19.1557 61.2280
C 22.1837 19.9770 61.2280
C 21.5543 20.4127 60.0625
C 20.2796 20.8502 60.0625
C 19.5199 20.8990 61.2280
C 18.1056 20.9664 61.2280
C 17.3406 21.0034 60.0648
C 16.0299 20.6911 60.0653
C 15.3662 20.3018 61.2280
C 14.1400 19.5939 61.2280
C 13.5198 19.1697 60.0543
C 12.5896 18.1932 60.0545
C 12.1948 17.5537 61.2280
C 11.5460 16.2953 61.2280
C 11.1824 15.6142 60.0662
C 10.9322 14.2932 60.0669
C 11.0125 13.5273 61.2280
C 11.1471 12.1179 61.2280
C 11.2405 11.3646 60.0616
C 11.7352 10.1099 60.0607
C 12.1948  9.5009 61.2280
C 13.0700  8.3879 61.2280
C 13.5732  7.8253 60.0564
C 14.6729  7.0457 60.0559
C 15.3662  6.7528 61.2280
C 16.7042  6.2897 61.2280
C 17.4236  6.0220 60.0671
C 18.7785  5.9577 60.0668
C 19.5199  6.1556 61.2280
C 20.8958  6.4894 61.2280
C 21.6186  6.7067 60.0578
C 22.7902  7.3748 60.0580
C 23.3371  7.8989 61.2280
C 24.3141  8.9236 61.2280
C 24.8171  9.4930 60.0587
C 25.4307 10.6932 60.0592
C 25.6058 11.4291 61.2280
C 25.8738 12.8194 61.2280
C 25.9075 13.5273 62.4560
C 25.7729 14.9367 62.4560
C 25.6058 15.6255 63.6841
C 25.0796 16.9399 63.6841
C 24.7252 17.5537 62.4560
C 23.8500 18.6667 62.4560
C 23.3371 19.1557 63.6841
C 22.1837 19.9770 63.6841
C 21.5538 20.3018 62.4560
C 20.2158 20.7649 62.4560
C 19.5199 20.8990 63.6841
C 18.1056 20.9664 63.6841
C 17.4001 20.8990 62.4560
C 16.0242 20.5652 62.4560
C 15.3662 20.3018 63.6841
C 14.1400 19.5939 63.6841
C 13.5829 19.1557 62.4560
C 12.6059 18.1310 62.4560
C 12.1948 17.5537 63.6841
C 11.5460 16.2953 63.6841
C 11.3142 15.6255 62.4560
C 11.0462 14.2352 62.4560
C 11.0125 13.5273 63.6841
C 11.1471 12.1179 63.6841
C 11.3142 11.4291 62.4560
C 11.8404 10.1147 62.4560
C 12.1948  9.5009 63.6841
C 13.0700  8.3879 63.6841
C 13.5829  7.8989 62.4560
C 14.7363  7.0776 62.4560
C 15.3662  6.7528 63.6841
C 16.7042  6.2897 63.6841
C 17.4001  6.1556 62.4560
C 18.8144  6.0882 62.4560
C 19.5199  6.1556 63.6841
C 20.8958  6.4894 63.6841
C 21.5538  6.7528 62.4560
C 22.7800  7.4607 62.4560
C 23.3371  7.8989 63.6841
C 24.3141  8.9236 63.6841
C 24.7252  9.5009 62.4560
C 25.3740 10.7593 62.4560
C 25.6058 11.4291 63.6841
C 25.8738 12.8194 63.6841
C 25.9075 13.5273 64.9121
C 25.7729 14.9367 64.9121
C 25.6058 15.6255 66.1401
C 25.0796 16.9399 66.1401
C 24.7252 17.5537 64.9121
C 23.8500 18.6667 64.9121
C 23.3371 19.1557 66.1401
C 22.1837 19.9770 66.1401
C 21.5538 20.3018 64.9121
C 20.2158 20.7649 64.9121
C 19.5199 20.8990 66.1401
C 18.1056 20.9664 66.1401
C 17.4001 20.8990 64.9121
C 16.0242 20.5652 64.9121
C 15.3662 20.3018 66.1401
C 14.1400 19.5939 66.1401
C 13.5829 19.1557 64.9121
C 12.6059 18.1310 64.9121
C 12.1948 17.5537 66.1401
C 11.5460 16.2953 66.1401
C 11.3142 15.6255 64.9121
C 11.0462 14.2352 64.9121
C 11.0125 13.5273 66.1401
C 11.1471 12.1179 66.1401
C 11.3142 11.4291 64.9121
C 11.8404 10.1147 64.9121
C 12.1948  9.5009 66.1401
C 13.0700  8.3879 66.1401
C 13.5829  7.8989 64.9121
C 14.7363  7.0776 64.9121
C 15.3662  6.7528 66.1401
C 16.7042  6.2897 66.1401
C 17.4001  6.1556 64.9121
C 18.8144  6.0882 64.9121
C 19.5199  6.1556 66.1401
C 20.8958  6.4894 66.1401
C 21.5538  6.7528 64.9121
C 22.7800  7.4607 64.9121
C 23.3371  7.8989 66.1401
C 24.3141  8.9236 66.1401
C 24.7252  9.5009 64.9121
C 25.3740 10.7593 64.9121
C 25.6058 11.4291 66.1401
C 25.8738 12.8194 66.1401
C 25.9075 13.5273 67.3681
C 25.7729 14.9367 67.3681
C 25.6058 15.6255 68.5962
C 25.0796 16.9399 68.5962
C 24.7252 17.5537 67.3681
C 23.8500 18.6667 67.3681
C 23.3371 19.1557 68.5962
C 22.1837 19.9770 68.5962
C 21.5538 20.3018 67.3681
C 20.2158 20.7649 67.3681
C 19.5199 20.8990 68.5962
C 18.1056 20.9664 68.5962
C 17.4001 20.8990 67.3681
C 16.0242 20.5652 67.3681
C 15.3662 20.3018 68.5962
C 14.1400 19.5939 68.5962
C 13.5829 19.1557 67.3681
C 12.6059 18.1310 67.3681
C 12.1948 17.5537 68.5962
C 11.5460 16.2953 68.5962
C 11.3142 15.6255 67.3681
C 11.0462 14.2352 67.3681
C 11.0125 13.5273 68.5962
C 11.1471 12.1179 68.5962
C 11.3142 11.4291 67.3681
C 11.8404 10.1147 67.3681
C 12.1948  9.5009 68.5962
C 13.0700  8.3879 68.5962
C 13.5829  7.8989 67.3681
C 14.7363  7.0776 67.3681
C 15.3662  6.7528 68.5962
C 16.7042  6.2897 68.5962
C 17.4001  6.1556 67.3681
C 18.8144  6.0882 67.3681
C 19.5199  6.1556 68.5962
C 20.8958  6.4894 68.5962
C 21.5538  6.7528 67.3681
C 22.7800  7.4607 67.3681
C 23.3371  7.8989 68.5962
C 24.3141  8.9236 68.5962
C 24.7252  9.5009 67.3681
C 25.3740 10.7593 67.3681
C 25.6058 11.4291 68.5962
C 25.8738 12.8194 68.5962
C 25.9075 13.5273 69.8242
C 25.7729 14.9367 69.8242
C 25.6058 15.6255 71.0522
C 25.0796 16.9399 71.0522
C 24.7252 17.5537 69.8242
C 23.8500 18.6667 69.8242
C 23.3371 19.1557 71.0522
C 22.1837 19.9770 71.0522
C 21.5538 20.3018 69.8242
C 20.2158 20.7649 69.8242
C 19.5199 20.8990 71.0522
C 18.1056 20.9664 71.0522
C 17.4001 20.8990 69.8242
C 16.0242 20.5652 69.8242
C 15.3662 20.3018 71.0522
C 14.1400 19.5939 71.0522
C 13.5829 19.1557 69.8242
C 12.6059 18.1310 69.8242
C 12.1948 17.5537 71.0522
C 11.5460 16.2953 71.0522
C 11.3142 15.6255 69.8242
C 11.0462 14.2352 69.8242
C 11.0125 13.5273 71.0522
C 11.1471 12.1179 71.0522
C 11.3142 11.4291 69.8242
C 11.8404 10.1147 69.8242
C 12.1948  9.5009 71.0522
C 13.0700  8.3879 71.0522
C 13.5829  7.8989 69.8242
C 14.7363  7.0776 69.8242
C 15.3662  6.7528 71.0522
C 16.7042  6.2897 71.0522
C 17.4001  6.1556 69.8242
C 18.8144  6.0882 69.8242
C 19.5199  6.1556 71.0522
C 20.8958  6.4894 71.0522
C 21.5538  6.7528 69.8242
C 22.7800  7.4607 69.8242
C 23.3371  7.8989 71.0522
C 24.3141  8.9236 71.0522
C 24.7252  9.5009 69.8242
C 25.3740 10.7593 69.8242
C 25.6058 11.4291 71.0522
C 25.8738 12.8194 71.0522
C 25.9075 13.5273 72.2802
C 25.7729 14.9367 72.2802
C 25.6058 15.6255 73.5083
C 25.0796 16.9399 73.5083
C 24.7252 17.5537 72.2802
C 23.8500 18.6667 72.2802
C 23.3371 19.1557 73.5083
C 22.1837 19.9770 73.5083
C 21.5538 20.3018 72.2802
C 20.2158 20.7649 72.2802
C 19.5199 20.8990 73.5083
C 18.1056 20.9664 73.5083
C 17.4001 20.8990 72.2802
C 16.0242 20.5652 72.2802
C 15.3662 20.3018 73.5083
C 14.1400 19.5939 73.5083
C 13.5829 19.1557 72.2802
C 12.6059 18.1310 72.2802
C 12.1948 17.5537 73.5083
C 11.5460 16.2953 73.5083
C 11.3142 15.6255 72.2802
C 11.0462 14.2352 72.2802
C 11.0125 13.5273 73.5083
C 11.1471 12.1179 73.5083
C 11.3142 11.4291 72.2802
C 11.8404 10.1147 72.2802
C 12.1948  9.5009 73.5083
C 13.0700  8.3879 73.5083
C 13.5829  7.8989 72.2802
C 14.7363  7.0776 72.2802
C 15.3662  6.7528 73.5083
C 16.7042  6.2897 73.5083
C 17.4001  6.1556 72.2802
C 18.8144  6.0882 72.2802
C 19.5199  6.1556 73.5083
C 20.8958  6.4894 73.5083
C 21.5538  6.7528 72.2802
C 22.7800  7.4607 72.2802
C 23.3371  7.8989 73.5083
C 24.3141  8.9236 73.5083
C 24.7252  9.5009 72.2802
C 25.3740 10.7593 72.2802
C 25.6058 11.4291 73.5083
C 25.8738 12.8194 73.5083
C 25.9075 13.5273 74.7363
C 25.7729 14.9367 74.7363
C 25.6722 15.6894 75.9019
C 25.1718 16.9393 75.9018
C 24.7252 17.5537 74.7363
C 23.8500 18.6667 74.7363
C 23.3585 19.2454 75.9019
C 22.2616 20.0265 75.9018
C 21.5538 20.3018 74.7363
C 20.2158 20.7649 74.7363
C 19.4893 20.9859 75.9019
C 18.1445 21.0499 75.9019
C 17.4001 20.8990 74.7363
C 16.0242 20.5652 74.7363
C 15.2935 20.3585 75.9018
C 14.1274 19.6852 75.9018
C 13.5829 19.1557 74.7363
C 12.6059 18.1310 74.7363
C 12.1032 17.5615 75.9021
C 11.4860 16.3648 75.9025
C 11.3142 15.6255 74.7363
C 11.0462 14.2352 74.7363
C 10.9316 13.4842 75.9014
C 11.0593 12.1445 75.9023
C 11.3142 11.4291 74.7363
C 11.8404 10.1147 74.7363
C 12.1496  9.4208 75.9022
C 12.9819  8.3622 75.9025
C 13.5829  7.8989 74.7363
C 14.7363  7.0776 74.7363
C 15.3722  6.6618 75.9023
C 16.6443  6.2209 75.9027
C 17.4001  6.1556 74.7363
C 18.8144  6.0882 74.7363
C 19.5741  6.0820 75.9020
C 20.8827  6.3990 75.9028
C 21.5538  6.7528 74.7363
C 22.7800  7.4607 74.7363
C 23.4225  7.8657 75.9018
C 24.3516  8.8399 75.9021
C 24.7252  9.5009 74.7363
C 25.3740 10.7593 74.7363
C 25.6963 11.4469 75.9019
C 25.9510 12.7690 75.9018
F 26.1794 13.1853 58.8730
F 25.9908 15.3268 58.8750
F 24.9853 17.3114 58.8520
F 23.6924 18.9875 58.8506
F 21.9516 20.3655 58.8634
F 19.9289 21.0341 58.8618
F 17.7060 21.1775 58.8669
F 15.6216 20.6985 58.8683
F 13.7847 19.4479 58.8502
F 12.3291 17.9116 58.8506
F 11.1461 16.0294 58.8713
F 10.7654 13.9185 58.8690
F 11.0479 11.7093 58.8606
F 11.8122  9.7243 58.8603
F 13.2451  8.0287 58.8526
F 14.9842  6.8213 58.8521
F 17.0197  5.9201 58.8759
F 19.1685  5.8268 58.8741
F 21.2935  6.4940 58.8558
F 23.1427  7.5313 58.8543
F 24.6863  9.1265 58.8561
F 25.6326 11.0257 58.8564
F 25.8618 15.3485 77.1229
F 25.0738 17.3168 77.1229
F 23.7021 19.0611 77.1229
F 21.9752 20.2910 77.1230
F 19.8781 21.0165 77.1228
F 17.7604 21.1174 77.1231
F 15.6038 20.5946 77.1228
F 13.7675 19.5344 77.1227
F 12.2371 17.9275 77.1234
F 11.2640 16.0420 77.1265
F 10.8489 13.8617 77.1041
F 11.0475 11.7543 77.1228
F 11.8725  9.6945 77.1235
F 13.1834  8.0260 77.1264
F 14.9953  6.7439 77.1042
F 16.9958  6.0476 77.1264
F 19.2129  5.9470 77.1043
F 21.2718  6.4430 77.1265
F 23.1918  7.5562 77.1039
F 24.6538  9.0863 77.1228
F 25.6717 11.0578 77.1231
F 26.0726 13.1395 77.1228
