1008
29.820         29.472          0.000
C  4.9700  0.0000 60.0000
C  6.3900  0.0000 60.0000
C  4.2600  1.2298 60.0000
C  7.1000  1.2298 60.0000
C  9.2300  0.0000 60.0000
C 10.6500  0.0000 60.0000
C  8.5200  1.2298 60.0000
C 11.3600  1.2298 60.0000
C 13.4900  0.0000 60.0000
C 14.9100  0.0000 60.0000
C 12.7800  1.2298 60.0000
C 15.6200  1.2298 60.0000
C 17.7500  0.0000 60.0000
C 19.1700  0.0000 60.0000
C 17.0400  1.2298 60.0000
C 19.8800  1.2298 60.0000
C 22.0100  0.0000 60.0000
C 23.4300  0.0000 60.0000
C 21.3000  1.2298 60.0000
C 24.1400  1.2298 60.0000
C 26.2700  0.0000 60.0000
C 27.6900  0.0000 60.0000
C 25.5600  1.2298 60.0000
C 28.4000  1.2298 60.0000
C 30.5300  0.0000 60.0000
C 31.9500  0.0000 60.0000
C 29.8200  1.2298 60.0000
C 32.6600  1.2298 60.0000
C  4.9700  2.4595 60.0000
C  6.3900  2.4595 60.0000
C  4.2600  3.6893 60.0000
C  7.1000  3.6893 60.0000
C  9.2300  2.4595 60.0000
C 10.6500  2.4595 60.0000
C  8.5200  3.6893 60.0000
C 11.3600  3.6893 60.0000
C 13.4900  2.4595 60.0000
C 14.9100  2.4595 60.0000
C 12.7800  3.6893 60.0000
C 15.6200  3.6893 60.0000
C 17.7500  2.4595 60.0000
C 19.1700  2.4595 60.0000
C 17.0400  3.6893 60.0000
C 19.8885  3.6633 59.9938
C 22.0100  2.4595 60.0000
C 23.4300  2.4595 60.0000
C 21.3035  3.6644 59.9932
C 24.1400  3.6893 60.0000
C 26.2700  2.4595 60.0000
C 27.6900  2.4595 60.0000
C 25.5600  3.6893 60.0000
C 28.4000  3.6893 60.0000
C 30.5300  2.4595 60.0000
C 31.9500  2.4595 60.0000
C 29.8200  3.6893 60.0000
C 32.6600  3.6893 60.0000
C  4.9700  4.9190 60.0000
C  6.3900  4.9190 60.0000
C  4.2600  6.1488 60.0000
C  7.1000  6.1488 60.0000
C  9.2300  4.9190 60.0000
C 10.6500  4.9190 60.0000
C  8.5200  6.1488 60.0000
C 11.3420  6.1363 60.0035
C 13.4900  4.9190 60.0000
C 14.8975  4.8873 59.9977
C 12.7479  6.1176 60.0044
C 15.6010  6.0769 59.9879
C 17.7586  4.8796 59.9827
C 19.1755  4.8685 59.9798
C 17.0257  6.0699 59.9692
C 19.9032  6.0626 59.9515
C 22.0308  4.8651 59.9826
C 23.4439  4.8945 59.9902
C 21.3276  6.0607 59.9569
C 24.1751  6.1040 59.9829
C 26.2700  4.9190 60.0000
C 27.6900  4.9190 60.0000
C 25.5791  6.1336 59.9908
C 28.4000  6.1488 60.0000
C 30.5300  4.9190 60.0000
C 31.9500  4.9190 60.0000
C 29.8200  6.1488 60.0000
C 32.6600  6.1488 60.0000
C  4.9700  7.3785 60.0000
C  6.3900  7.3785 60.0000
C  4.2600  8.6083 60.0000
C  7.1000  8.6083 60.0000
C  9.2300  7.3785 60.0000
C 10.6320  7.3607 60.0050
C  8.5200  8.6083 60.0000
C 11.3192  8.5824 60.0190
C 13.4318  7.3219 60.0145
C 14.8358  7.2540 60.0010
C 12.7168  8.5520 60.0326
C 15.5144  8.4273 60.0007
C 17.7391  7.2627 59.9231
C 19.1863  7.2614 59.8902
C 16.9138  8.4030 59.9375
C 20.0157  8.3985 59.8118
C 22.0868  7.2415 59.9468
C 23.4887  7.3097 59.9614
C 21.4073  8.4171 59.9132
C 24.1956  8.5454 59.9420
C 26.2868  7.3592 59.9882
C 27.6900  7.3785 60.0000
C 25.5960  8.5789 59.9687
C 28.4000  8.6083 60.0000
C 30.5300  7.3785 60.0000
C 31.9500  7.3785 60.0000
C 29.8200  8.6083 60.0000
C 32.6600  8.6083 60.0000
C  4.9700  9.8380 60.0000
C  6.3900  9.8380 60.0000
C  4.2600 11.0678 60.0000
C  7.1000 11.0678 60.0000
C  9.2300  9.8380 60.0000
C 10.6236  9.8167 60.0163
C  8.5200 11.0678 60.0000
C 11.2947 11.0482 60.0445
C 13.3975  9.7700 60.0774
C 14.7948  9.6275 60.0636
C 12.6891 11.0321 60.1096
C 22.1056  9.6301 59.9537
C 23.5078  9.7646 59.9163
C 24.2226 11.0193 59.9060
C 26.2935  9.8128 59.9826
C 27.6900  9.8380 60.0000
C 25.6146 11.0393 59.9647
C 28.4000 11.0678 60.0000
C 30.5300  9.8380 60.0000
C 31.9500  9.8380 60.0000
C 29.8200 11.0678 60.0000
C 32.6600 11.0678 60.0000
C  4.9700 12.2976 60.0000
C  6.3900 12.2976 60.0000
C  4.2600 13.5273 60.0000
C  7.1000 13.5273 60.0000
C  9.1992 12.2933 60.0080
C 10.5849 12.2838 60.0365
C  8.5200 13.5273 60.0000
C 11.2255 13.5357 60.0542
C 13.2617 12.3254 60.1935
C 12.5817 13.5425 60.0998
C 23.6494 12.3066 59.8196
C 24.3172 13.5271 59.9097
C 26.3109 12.2791 59.9757
C 27.6900 12.2976 60.0000
C 25.6694 13.5259 59.9589
C 28.4000 13.5273 60.0000
C 30.5300 12.2976 60.0000
C 31.9500 12.2976 60.0000
C 29.8200 13.5273 60.0000
C 32.6600 13.5273 60.0000
C  4.9700 14.7571 60.0000
C  6.3900 14.7571 60.0000
C  4.2600 15.9868 60.0000
C  7.1000 15.9868 60.0000
C  9.1984 14.7635 60.0079
C 10.5819 14.7837 60.0386
C  8.5200 15.9868 60.0000
C 11.2838 16.0242 60.0713
C 13.2740 14.7635 60.0810
C 12.6790 16.0498 60.1208
C 23.6252 14.7449 59.9215
C 24.2138 16.0277 59.8879
C 26.3099 14.7721 59.9740
C 27.6900 14.7571 60.0000
C 25.6093 16.0082 59.9416
C 28.4000 15.9868 60.0000
C 30.5300 14.7571 60.0000
C 31.9500 14.7571 60.0000
C 29.8200 15.9868 60.0000
C 32.6600 15.9868 60.0000
C  4.9700 17.2166 60.0000
C  6.3900 17.2166 60.0000
C  4.2600 18.4463 60.0000
C  7.1000 18.4463 60.0000
C  9.2101 17.2233 60.0100
C 10.6064 17.2531 60.0420
C  8.5200 18.4463 60.0000
C 11.3024 18.4912 60.0368
C 13.3832 17.3156 60.1526
C 14.7754 17.4713 60.2799
C 12.7005 18.5319 60.0714
C 15.4955 18.6639 60.1666
C 16.8973 18.6808 60.1762
C 19.9734 18.6550 59.8260
C 22.0999 17.4387 59.7257
C 23.4959 17.2815 59.8560
C 21.3754 18.6309 59.8396
C 24.1799 18.4905 59.9427
C 26.2899 17.2333 59.9720
C 27.6900 17.2166 60.0000
C 25.5820 18.4590 59.9776
C 28.4000 18.4463 60.0000
C 30.5300 17.2166 60.0000
C 31.9500 17.2166 60.0000
C 29.8200 18.4463 60.0000
C 32.6600 18.4463 60.0000
C  4.9700 19.6761 60.0000
C  6.3900 19.6761 60.0000
C  4.2600 20.9059 60.0000
C  7.1000 20.9059 60.0000
C  9.2136 19.6828 60.0021
C 10.6148 19.7120 60.0113
C  8.5200 20.9059 60.0000
C 11.3193 20.9430 60.0070
C 13.4109 19.7676 60.0485
C 14.8154 19.8350 60.0594
C 12.7246 20.9741 60.0143
C 15.5787 21.0140 60.0254
C 17.7172 19.8197 60.0404
C 19.1641 19.8083 59.9611
C 17.0051 21.0185 60.0208
C 19.8842 21.0044 59.9819
C 22.0572 19.7985 59.9501
C 23.4578 19.7132 59.9657
C 21.3077 20.9895 59.9803
C 24.1400 20.9059 60.0000
C 26.2700 19.6761 60.0000
C 27.6900 19.6761 60.0000
C 25.5600 20.9059 60.0000
C 28.4000 20.9059 60.0000
C 30.5300 19.6761 60.0000
C 31.9500 19.6761 60.0000
C 29.8200 20.9059 60.0000
C 32.6600 20.9059 60.0000
C  4.9700 22.1356 60.0000
C  6.3900 22.1356 60.0000
C  4.2600 23.3654 60.0000
C  7.1000 23.3654 60.0000
C  9.2190 22.1407 59.9997
C 10.6267 22.1600 59.9999
C  8.5200 23.3654 60.0000
C 11.3468 23.3782 59.9993
C 13.4579 22.1837 60.0047
C 14.8754 22.2069 60.0059
C 12.7592 23.3912 59.9996
C 15.6150 23.3991 59.9997
C 17.7423 22.2100 60.0002
C 19.1614 22.2058 60.0008
C 17.0307 23.4117 59.9991
C 19.8817 23.4068 60.0015
C 22.0174 22.1819 59.9982
C 23.4300 22.1356 60.0000
C 21.2985 23.3917 60.0012
C 24.1400 23.3654 60.0000
C 26.2700 22.1356 60.0000
C 27.6900 22.1356 60.0000
C 25.5600 23.3654 60.0000
C 28.4000 23.3654 60.0000
C 30.5300 22.1356 60.0000
C 31.9500 22.1356 60.0000
C 29.8200 23.3654 60.0000
C 32.6600 23.3654 60.0000
C  4.9700 24.5951 60.0000
C  6.3900 24.5951 60.0000
C  4.2600 25.8249 60.0000
C  7.1000 25.8249 60.0000
C  9.2300 24.5951 60.0000
C 10.6500 24.5951 60.0000
C  8.5200 25.8249 60.0000
C 11.3600 25.8249 60.0000
C 13.4900 24.5951 60.0000
C 14.9100 24.5951 60.0000
C 12.7800 25.8249 60.0000
C 15.6200 25.8249 60.0000
C 17.7513 24.6171 59.9992
C 19.1668 24.6162 60.0008
C 17.0400 25.8249 60.0000
C 19.8800 25.8249 60.0000
C 22.0100 24.5951 60.0000
C 23.4300 24.5951 60.0000
C 21.3000 25.8249 60.0000
C 24.1400 25.8249 60.0000
C 26.2700 24.5951 60.0000
C 27.6900 24.5951 60.0000
C 25.5600 25.8249 60.0000
C 28.4000 25.8249 60.0000
C 30.5300 24.5951 60.0000
C 31.9500 24.5951 60.0000
C 29.8200 25.8249 60.0000
C 32.6600 25.8249 60.0000
C  4.9700 27.0546 60.0000
C  6.3900 27.0546 60.0000
C  4.2000 28.3883 60.0000
C  7.1000 28.2844 60.0000
C  9.2300 27.0546 60.0000
C 10.6500 27.0546 60.0000
C  8.5200 28.2844 60.0000
C 11.3600 28.2844 60.0000
C 13.4900 27.0546 60.0000
C 14.9100 27.0546 60.0000
C 12.7800 28.2844 60.0000
C 15.6200 28.2844 60.0000
C 17.7500 27.0546 60.0000
C 19.1700 27.0546 60.0000
C 17.0400 28.2844 60.0000
C 19.8800 28.2844 60.0000
C 22.0100 27.0546 60.0000
C 23.4300 27.0546 60.0000
C 21.3000 28.2844 60.0000
C 24.1400 28.2844 60.0000
C 26.2700 27.0546 60.0000
C 27.6900 27.0546 60.0000
C 25.5600 28.2844 60.0000
C 28.4000 28.2844 60.0000
C 30.5300 27.0546 60.0000
C 31.9500 27.0546 60.0000
C 29.8200 28.2844 60.0000
C 32.7200 28.3883 60.0000
C  4.9700  0.0000  0.0000
C  6.3900  0.0000  0.0000
C  4.2600  1.2298  0.0000
C  7.1000  1.2298  0.0000
C  9.2300  0.0000  0.0000
C 10.6500  0.0000  0.0000
C  8.5200  1.2298  0.0000
C 11.3600  1.2298  0.0000
C 13.4900  0.0000  0.0000
C 14.9100  0.0000  0.0000
C 12.7800  1.2298  0.0000
C 15.6200  1.2298  0.0000
C 17.7500  0.0000  0.0000
C 19.1700  0.0000  0.0000
C 17.0400  1.2298  0.0000
C 19.8800  1.2298  0.0000
C 22.0100  0.0000  0.0000
C 23.4300  0.0000  0.0000
C 21.3000  1.2298  0.0000
C 24.1400  1.2298  0.0000
C 26.2700  0.0000  0.0000
C 27.6900  0.0000  0.0000
C 25.5600  1.2298  0.0000
C 28.4000  1.2298  0.0000
C 30.5300  0.0000  0.0000
C 31.9500  0.0000  0.0000
C 29.8200  1.2298  0.0000
C 32.6600  1.2298  0.0000
C  4.9700  2.4595  0.0000
C  6.3900  2.4595  0.0000
C  4.2600  3.6893  0.0000
C  7.1000  3.6893  0.0000
C  9.2300  2.4595  0.0000
C 10.6500  2.4595  0.0000
C  8.5200  3.6893  0.0000
C 11.3600  3.6893  0.0000
C 13.4900  2.4595  0.0000
C 14.9100  2.4595  0.0000
C 12.7800  3.6893  0.0000
C 15.6200  3.6893  0.0000
C 17.7500  2.4595  0.0000
C 19.1700  2.4595  0.0000
C 17.0400  3.6893  0.0000
C 19.8800  3.6893  0.0000
C 22.0100  2.4595  0.0000
C 23.4300  2.4595  0.0000
C 21.3000  3.6893  0.0000
C 24.1400  3.6893  0.0000
C 26.2700  2.4595  0.0000
C 27.6900  2.4595  0.0000
C 25.5600  3.6893  0.0000
C 28.4000  3.6893  0.0000
C 30.5300  2.4595  0.0000
C 31.9500  2.4595  0.0000
C 29.8200  3.6893  0.0000
C 32.6600  3.6893  0.0000
C  4.9700  4.9190  0.0000
C  6.3900  4.9190  0.0000
C  4.2600  6.1488  0.0000
C  7.1000  6.1488  0.0000
C  9.2300  4.9190  0.0000
C 10.6500  4.9190  0.0000
C  8.5200  6.1488  0.0000
C 11.3600  6.1488  0.0000
C 13.4900  4.9190  0.0000
C 14.9100  4.9190  0.0000
C 12.7800  6.1488  0.0000
C 15.6200  6.1488  0.0000
C 17.7500  4.9190  0.0000
C 19.1700  4.9190  0.0000
C 17.0400  6.1488  0.0000
C 19.8800  6.1488  0.0000
C 22.0100  4.9190  0.0000
C 23.4300  4.9190  0.0000
C 21.3000  6.1488  0.0000
C 24.1400  6.1488  0.0000
C 26.2700  4.9190  0.0000
C 27.6900  4.9190  0.0000
C 25.5600  6.1488  0.0000
C 28.4000  6.1488  0.0000
C 30.5300  4.9190  0.0000
C 31.9500  4.9190  0.0000
C 29.8200  6.1488  0.0000
C 32.6600  6.1488  0.0000
C  4.9700  7.3785  0.0000
C  6.3900  7.3785  0.0000
C  4.2600  8.6083  0.0000
C  7.1000  8.6083  0.0000
C  9.2300  7.3785  0.0000
C 10.6500  7.3785  0.0000
C  8.5200  8.6083  0.0000
C 11.3600  8.6083  0.0000
C 13.4900  7.3785  0.0000
C 14.9100  7.3785  0.0000
C 12.7800  8.6083  0.0000
C 15.6200  8.6083  0.0000
C 17.7500  7.3785  0.0000
C 19.1700  7.3785  0.0000
C 17.0400  8.6083  0.0000
C 19.8800  8.6083  0.0000
C 22.0100  7.3785  0.0000
C 23.4300  7.3785  0.0000
C 21.3000  8.6083  0.0000
C 24.1400  8.6083  0.0000
C 26.2700  7.3785  0.0000
C 27.6900  7.3785  0.0000
C 25.5600  8.6083  0.0000
C 28.4000  8.6083  0.0000
C 30.5300  7.3785  0.0000
C 31.9500  7.3785  0.0000
C 29.8200  8.6083  0.0000
C 32.6600  8.6083  0.0000
C  4.9700  9.8380  0.0000
C  6.3900  9.8380  0.0000
C  4.2600 11.0678  0.0000
C  7.1000 11.0678  0.0000
C  9.2300  9.8380  0.0000
C 10.6500  9.8380  0.0000
C  8.5200 11.0678  0.0000
C 11.3600 11.0678  0.0000
C 13.4900  9.8380  0.0000
C 14.9100  9.8380  0.0000
C 12.7800 11.0678  0.0000
C 15.6200 11.0678  0.0000
C 17.7500  9.8380  0.0000
C 19.1700  9.8380  0.0000
C 17.0400 11.0678  0.0000
C 19.8800 11.0678  0.0000
C 22.0100  9.8380  0.0000
C 23.4300  9.8380  0.0000
C 21.3000 11.0678  0.0000
C 24.1400 11.0678  0.0000
C 26.2700  9.8380  0.0000
C 27.6900  9.8380  0.0000
C 25.5600 11.0678  0.0000
C 28.4000 11.0678  0.0000
C 30.5300  9.8380  0.0000
C 31.9500  9.8380  0.0000
C 29.8200 11.0678  0.0000
C 32.6600 11.0678  0.0000
C  4.9700 12.2976  0.0000
C  6.3900 12.2976  0.0000
C  4.2600 13.5273  0.0000
C  7.1000 13.5273  0.0000
C  9.2300 12.2976  0.0000
C 10.6500 12.2976  0.0000
C  8.5200 13.5273  0.0000
C 11.3600 13.5273  0.0000
C 13.4900 12.2976  0.0000
C 14.9100 12.2976  0.0000
C 12.7800 13.5273  0.0000
C 15.6200 13.5273  0.0000
C 17.7500 12.2976  0.0000
C 19.1700 12.2976  0.0000
C 17.0400 13.5273  0.0000
C 19.8800 13.5273  0.0000
C 22.0100 12.2976  0.0000
C 23.4300 12.2976  0.0000
C 21.3000 13.5273  0.0000
C 24.1400 13.5273  0.0000
C 26.2700 12.2976  0.0000
C 27.6900 12.2976  0.0000
C 25.5600 13.5273  0.0000
C 28.4000 13.5273  0.0000
C 30.5300 12.2976  0.0000
C 31.9500 12.2976  0.0000
C 29.8200 13.5273  0.0000
C 32.6600 13.5273  0.0000
C  4.9700 14.7571  0.0000
C  6.3900 14.7571  0.0000
C  4.2600 15.9868  0.0000
C  7.1000 15.9868  0.0000
C  9.2300 14.7571  0.0000
C 10.6500 14.7571  0.0000
C  8.5200 15.9868  0.0000
C 11.3600 15.9868  0.0000
C 13.4900 14.7571  0.0000
C 14.9100 14.7571  0.0000
C 12.7800 15.9868  0.0000
C 15.6200 15.9868  0.0000
C 17.7500 14.7571  0.0000
C 19.1700 14.7571  0.0000
C 17.0400 15.9868  0.0000
C 19.8800 15.9868  0.0000
C 22.0100 14.7571  0.0000
C 23.4300 14.7571  0.0000
C 21.3000 15.9868  0.0000
C 24.1400 15.9868  0.0000
C 26.2700 14.7571  0.0000
C 27.6900 14.7571  0.0000
C 25.5600 15.9868  0.0000
C 28.4000 15.9868  0.0000
C 30.5300 14.7571  0.0000
C 31.9500 14.7571  0.0000
C 29.8200 15.9868  0.0000
C 32.6600 15.9868  0.0000
C  4.9700 17.2166  0.0000
C  6.3900 17.2166  0.0000
C  4.2600 18.4463  0.0000
C  7.1000 18.4463  0.0000
C  9.2300 17.2166  0.0000
C 10.6500 17.2166  0.0000
C  8.5200 18.4463  0.0000
C 11.3600 18.4463  0.0000
C 13.4900 17.2166  0.0000
C 14.9100 17.2166  0.0000
C 12.7800 18.4463  0.0000
C 15.6200 18.4463  0.0000
C 17.7500 17.2166  0.0000
C 19.1700 17.2166  0.0000
C 17.0400 18.4463  0.0000
C 19.8800 18.4463  0.0000
C 22.0100 17.2166  0.0000
C 23.4300 17.2166  0.0000
C 21.3000 18.4463  0.0000
C 24.1400 18.4463  0.0000
C 26.2700 17.2166  0.0000
C 27.6900 17.2166  0.0000
C 25.5600 18.4463  0.0000
C 28.4000 18.4463  0.0000
C 30.5300 17.2166  0.0000
C 31.9500 17.2166  0.0000
C 29.8200 18.4463  0.0000
C 32.6600 18.4463  0.0000
C  4.9700 19.6761  0.0000
C  6.3900 19.6761  0.0000
C  4.2600 20.9059  0.0000
C  7.1000 20.9059  0.0000
C  9.2300 19.6761  0.0000
C 10.6500 19.6761  0.0000
C  8.5200 20.9059  0.0000
C 11.3600 20.9059  0.0000
C 13.4900 19.6761  0.0000
C 14.9100 19.6761  0.0000
C 12.7800 20.9059  0.0000
C 15.6200 20.9059  0.0000
C 17.7500 19.6761  0.0000
C 19.1700 19.6761  0.0000
C 17.0400 20.9059  0.0000
C 19.8800 20.9059  0.0000
C 22.0100 19.6761  0.0000
C 23.4300 19.6761  0.0000
C 21.3000 20.9059  0.0000
C 24.1400 20.9059  0.0000
C 26.2700 19.6761  0.0000
C 27.6900 19.6761  0.0000
C 25.5600 20.9059  0.0000
C 28.4000 20.9059  0.0000
C 30.5300 19.6761  0.0000
C 31.9500 19.6761  0.0000
C 29.8200 20.9059  0.0000
C 32.6600 20.9059  0.0000
C  4.9700 22.1356  0.0000
C  6.3900 22.1356  0.0000
C  4.2600 23.3654  0.0000
C  7.1000 23.3654  0.0000
C  9.2300 22.1356  0.0000
C 10.6500 22.1356  0.0000
C  8.5200 23.3654  0.0000
C 11.3600 23.3654  0.0000
C 13.4900 22.1356  0.0000
C 14.9100 22.1356  0.0000
C 12.7800 23.3654  0.0000
C 15.6200 23.3654  0.0000
C 17.7500 22.1356  0.0000
C 19.1700 22.1356  0.0000
C 17.0400 23.3654  0.0000
C 19.8800 23.3654  0.0000
C 22.0100 22.1356  0.0000
C 23.4300 22.1356  0.0000
C 21.3000 23.3654  0.0000
C 24.1400 23.3654  0.0000
C 26.2700 22.1356  0.0000
C 27.6900 22.1356  0.0000
C 25.5600 23.3654  0.0000
C 28.4000 23.3654  0.0000
C 30.5300 22.1356  0.0000
C 31.9500 22.1356  0.0000
C 29.8200 23.3654  0.0000
C 32.6600 23.3654  0.0000
C  4.9700 24.5951  0.0000
C  6.3900 24.5951  0.0000
C  4.2600 25.8249  0.0000
C  7.1000 25.8249  0.0000
C  9.2300 24.5951  0.0000
C 10.6500 24.5951  0.0000
C  8.5200 25.8249  0.0000
C 11.3600 25.8249  0.0000
C 13.4900 24.5951  0.0000
C 14.9100 24.5951  0.0000
C 12.7800 25.8249  0.0000
C 15.6200 25.8249  0.0000
C 17.7500 24.5951  0.0000
C 19.1700 24.5951  0.0000
C 17.0400 25.8249  0.0000
C 19.8800 25.8249  0.0000
C 22.0100 24.5951  0.0000
C 23.4300 24.5951  0.0000
C 21.3000 25.8249  0.0000
C 24.1400 25.8249  0.0000
C 26.2700 24.5951  0.0000
C 27.6900 24.5951  0.0000
C 25.5600 25.8249  0.0000
C 28.4000 25.8249  0.0000
C 30.5300 24.5951  0.0000
C 31.9500 24.5951  0.0000
C 29.8200 25.8249  0.0000
C 32.6600 25.8249  0.0000
C  4.9700 27.0546  0.0000
C  6.3900 27.0546  0.0000
C  4.2600 28.2844  0.0000
C  7.1000 28.2844  0.0000
C  9.2300 27.0546  0.0000
C 10.6500 27.0546  0.0000
C  8.5200 28.2844  0.0000
C 11.3600 28.2844  0.0000
C 13.4900 27.0546  0.0000
C 14.9100 27.0546  0.0000
C 12.7800 28.2844  0.0000
C 15.6200 28.2844  0.0000
C 17.7500 27.0546  0.0000
C 19.1700 27.0546  0.0000
C 17.0400 28.2844  0.0000
C 19.8800 28.2844  0.0000
C 22.0100 27.0546  0.0000
C 23.4300 27.0546  0.0000
C 21.3000 28.2844  0.0000
C 24.1400 28.2844  0.0000
C 26.2700 27.0546  0.0000
C 27.6900 27.0546  0.0000
C 25.5600 28.2844  0.0000
C 28.4000 28.2844  0.0000
C 30.5300 27.0546  0.0000
C 31.9500 27.0546  0.0000
C 29.8200 28.2844  0.0000
C 32.6600 28.2844  0.0000
C  4.9700  0.0000 110.0000
C  6.3900  0.0000 110.0000
C  4.2600  1.2298 110.0000
C  7.1000  1.2298 110.0000
C  9.2300  0.0000 110.0000
C 10.6500  0.0000 110.0000
C  8.5200  1.2298 110.0000
C 11.3600  1.2298 110.0000
C 13.4900  0.0000 110.0000
C 14.9100  0.0000 110.0000
C 12.7800  1.2298 110.0000
C 15.6200  1.2298 110.0000
C 17.7500  0.0000 110.0000
C 19.1700  0.0000 110.0000
C 17.0400  1.2298 110.0000
C 19.8800  1.2298 110.0000
C 22.0100  0.0000 110.0000
C 23.4300  0.0000 110.0000
C 21.3000  1.2298 110.0000
C 24.1400  1.2298 110.0000
C 26.2700  0.0000 110.0000
C 27.6900  0.0000 110.0000
C 25.5600  1.2298 110.0000
C 28.4000  1.2298 110.0000
C 30.5300  0.0000 110.0000
C 31.9500  0.0000 110.0000
C 29.8200  1.2298 110.0000
C 32.6600  1.2298 110.0000
C  4.9700  2.4595 110.0000
C  6.3900  2.4595 110.0000
C  4.2600  3.6893 110.0000
C  7.1000  3.6893 110.0000
C  9.2300  2.4595 110.0000
C 10.6500  2.4595 110.0000
C  8.5200  3.6893 110.0000
C 11.3600  3.6893 110.0000
C 13.4900  2.4595 110.0000
C 14.9100  2.4595 110.0000
C 12.7800  3.6893 110.0000
C 15.6200  3.6893 110.0000
C 17.7500  2.4595 110.0000
C 19.1700  2.4595 110.0000
C 17.0400  3.6893 110.0000
C 19.8800  3.6893 110.0000
C 22.0100  2.4595 110.0000
C 23.4300  2.4595 110.0000
C 21.3000  3.6893 110.0000
C 24.1400  3.6893 110.0000
C 26.2700  2.4595 110.0000
C 27.6900  2.4595 110.0000
C 25.5600  3.6893 110.0000
C 28.4000  3.6893 110.0000
C 30.5300  2.4595 110.0000
C 31.9500  2.4595 110.0000
C 29.8200  3.6893 110.0000
C 32.6600  3.6893 110.0000
C  4.9700  4.9190 110.0000
C  6.3900  4.9190 110.0000
C  4.2600  6.1488 110.0000
C  7.1000  6.1488 110.0000
C  9.2300  4.9190 110.0000
C 10.6500  4.9190 110.0000
C  8.5200  6.1488 110.0000
C 11.3600  6.1488 110.0000
C 13.4900  4.9190 110.0000
C 14.9100  4.9190 110.0000
C 12.7800  6.1488 110.0000
C 15.6200  6.1488 110.0000
C 17.7500  4.9190 110.0000
C 19.1700  4.9190 110.0000
C 17.0400  6.1488 110.0000
C 19.8800  6.1488 110.0000
C 22.0100  4.9190 110.0000
C 23.4300  4.9190 110.0000
C 21.3000  6.1488 110.0000
C 24.1400  6.1488 110.0000
C 26.2700  4.9190 110.0000
C 27.6900  4.9190 110.0000
C 25.5600  6.1488 110.0000
C 28.4000  6.1488 110.0000
C 30.5300  4.9190 110.0000
C 31.9500  4.9190 110.0000
C 29.8200  6.1488 110.0000
C 32.6600  6.1488 110.0000
C  4.9700  7.3785 110.0000
C  6.3900  7.3785 110.0000
C  4.2600  8.6083 110.0000
C  7.1000  8.6083 110.0000
C  9.2300  7.3785 110.0000
C 10.6500  7.3785 110.0000
C  8.5200  8.6083 110.0000
C 11.3600  8.6083 110.0000
C 13.4900  7.3785 110.0000
C 14.9100  7.3785 110.0000
C 12.7800  8.6083 110.0000
C 15.6200  8.6083 110.0000
C 17.7500  7.3785 110.0000
C 19.1700  7.3785 110.0000
C 17.0400  8.6083 110.0000
C 19.8800  8.6083 110.0000
C 22.0100  7.3785 110.0000
C 23.4300  7.3785 110.0000
C 21.3000  8.6083 110.0000
C 24.1400  8.6083 110.0000
C 26.2700  7.3785 110.0000
C 27.6900  7.3785 110.0000
C 25.5600  8.6083 110.0000
C 28.4000  8.6083 110.0000
C 30.5300  7.3785 110.0000
C 31.9500  7.3785 110.0000
C 29.8200  8.6083 110.0000
C 32.6600  8.6083 110.0000
C  4.9700  9.8380 110.0000
C  6.3900  9.8380 110.0000
C  4.2600 11.0678 110.0000
C  7.1000 11.0678 110.0000
C  9.2300  9.8380 110.0000
C 10.6500  9.8380 110.0000
C  8.5200 11.0678 110.0000
C 11.3600 11.0678 110.0000
C 13.4900  9.8380 110.0000
C 14.9100  9.8380 110.0000
C 12.7800 11.0678 110.0000
C 15.6200 11.0678 110.0000
C 17.7500  9.8380 110.0000
C 19.1700  9.8380 110.0000
C 17.0400 11.0678 110.0000
C 19.8800 11.0678 110.0000
C 22.0100  9.8380 110.0000
C 23.4300  9.8380 110.0000
C 21.3000 11.0678 110.0000
C 24.1400 11.0678 110.0000
C 26.2700  9.8380 110.0000
C 27.6900  9.8380 110.0000
C 25.5600 11.0678 110.0000
C 28.4000 11.0678 110.0000
C 30.5300  9.8380 110.0000
C 31.9500  9.8380 110.0000
C 29.8200 11.0678 110.0000
C 32.6600 11.0678 110.0000
C  4.9700 12.2976 110.0000
C  6.3900 12.2976 110.0000
C  4.2600 13.5273 110.0000
C  7.1000 13.5273 110.0000
C  9.2300 12.2976 110.0000
C 10.6500 12.2976 110.0000
C  8.5200 13.5273 110.0000
C 11.3600 13.5273 110.0000
C 13.4900 12.2976 110.0000
C 14.9100 12.2976 110.0000
C 12.7800 13.5273 110.0000
C 15.6200 13.5273 110.0000
C 17.7500 12.2976 110.0000
C 19.1700 12.2976 110.0000
C 17.0400 13.5273 110.0000
C 19.8800 13.5273 110.0000
C 22.0100 12.2976 110.0000
C 23.4300 12.2976 110.0000
C 21.3000 13.5273 110.0000
C 24.1400 13.5273 110.0000
C 26.2700 12.2976 110.0000
C 27.6900 12.2976 110.0000
C 25.5600 13.5273 110.0000
C 28.4000 13.5273 110.0000
C 30.5300 12.2976 110.0000
C 31.9500 12.2976 110.0000
C 29.8200 13.5273 110.0000
C 32.6600 13.5273 110.0000
C  4.9700 14.7571 110.0000
C  6.3900 14.7571 110.0000
C  4.2600 15.9868 110.0000
C  7.1000 15.9868 110.0000
C  9.2300 14.7571 110.0000
C 10.6500 14.7571 110.0000
C  8.5200 15.9868 110.0000
C 11.3600 15.9868 110.0000
C 13.4900 14.7571 110.0000
C 14.9100 14.7571 110.0000
C 12.7800 15.9868 110.0000
C 15.6200 15.9868 110.0000
C 17.7500 14.7571 110.0000
C 19.1700 14.7571 110.0000
C 17.0400 15.9868 110.0000
C 19.8800 15.9868 110.0000
C 22.0100 14.7571 110.0000
C 23.4300 14.7571 110.0000
C 21.3000 15.9868 110.0000
C 24.1400 15.9868 110.0000
C 26.2700 14.7571 110.0000
C 27.6900 14.7571 110.0000
C 25.5600 15.9868 110.0000
C 28.4000 15.9868 110.0000
C 30.5300 14.7571 110.0000
C 31.9500 14.7571 110.0000
C 29.8200 15.9868 110.0000
C 32.6600 15.9868 110.0000
C  4.9700 17.2166 110.0000
C  6.3900 17.2166 110.0000
C  4.2600 18.4463 110.0000
C  7.1000 18.4463 110.0000
C  9.2300 17.2166 110.0000
C 10.6500 17.2166 110.0000
C  8.5200 18.4463 110.0000
C 11.3600 18.4463 110.0000
C 13.4900 17.2166 110.0000
C 14.9100 17.2166 110.0000
C 12.7800 18.4463 110.0000
C 15.6200 18.4463 110.0000
C 17.7500 17.2166 110.0000
C 19.1700 17.2166 110.0000
C 17.0400 18.4463 110.0000
C 19.8800 18.4463 110.0000
C 22.0100 17.2166 110.0000
C 23.4300 17.2166 110.0000
C 21.3000 18.4463 110.0000
C 24.1400 18.4463 110.0000
C 26.2700 17.2166 110.0000
C 27.6900 17.2166 110.0000
C 25.5600 18.4463 110.0000
C 28.4000 18.4463 110.0000
C 30.5300 17.2166 110.0000
C 31.9500 17.2166 110.0000
C 29.8200 18.4463 110.0000
C 32.6600 18.4463 110.0000
C  4.9700 19.6761 110.0000
C  6.3900 19.6761 110.0000
C  4.2600 20.9059 110.0000
C  7.1000 20.9059 110.0000
C  9.2300 19.6761 110.0000
C 10.6500 19.6761 110.0000
C  8.5200 20.9059 110.0000
C 11.3600 20.9059 110.0000
C 13.4900 19.6761 110.0000
C 14.9100 19.6761 110.0000
C 12.7800 20.9059 110.0000
C 15.6200 20.9059 110.0000
C 17.7500 19.6761 110.0000
C 19.1700 19.6761 110.0000
C 17.0400 20.9059 110.0000
C 19.8800 20.9059 110.0000
C 22.0100 19.6761 110.0000
C 23.4300 19.6761 110.0000
C 21.3000 20.9059 110.0000
C 24.1400 20.9059 110.0000
C 26.2700 19.6761 110.0000
C 27.6900 19.6761 110.0000
C 25.5600 20.9059 110.0000
C 28.4000 20.9059 110.0000
C 30.5300 19.6761 110.0000
C 31.9500 19.6761 110.0000
C 29.8200 20.9059 110.0000
C 32.6600 20.9059 110.0000
C  4.9700 22.1356 110.0000
C  6.3900 22.1356 110.0000
C  4.2600 23.3654 110.0000
C  7.1000 23.3654 110.0000
C  9.2300 22.1356 110.0000
C 10.6500 22.1356 110.0000
C  8.5200 23.3654 110.0000
C 11.3600 23.3654 110.0000
C 13.4900 22.1356 110.0000
C 14.9100 22.1356 110.0000
C 12.7800 23.3654 110.0000
C 15.6200 23.3654 110.0000
C 17.7500 22.1356 110.0000
C 19.1700 22.1356 110.0000
C 17.0400 23.3654 110.0000
C 19.8800 23.3654 110.0000
C 22.0100 22.1356 110.0000
C 23.4300 22.1356 110.0000
C 21.3000 23.3654 110.0000
C 24.1400 23.3654 110.0000
C 26.2700 22.1356 110.0000
C 27.6900 22.1356 110.0000
C 25.5600 23.3654 110.0000
C 28.4000 23.3654 110.0000
C 30.5300 22.1356 110.0000
C 31.9500 22.1356 110.0000
C 29.8200 23.3654 110.0000
C 32.6600 23.3654 110.0000
C  4.9700 24.5951 110.0000
C  6.3900 24.5951 110.0000
C  4.2600 25.8249 110.0000
C  7.1000 25.8249 110.0000
C  9.2300 24.5951 110.0000
C 10.6500 24.5951 110.0000
C  8.5200 25.8249 110.0000
C 11.3600 25.8249 110.0000
C 13.4900 24.5951 110.0000
C 14.9100 24.5951 110.0000
C 12.7800 25.8249 110.0000
C 15.6200 25.8249 110.0000
C 17.7500 24.5951 110.0000
C 19.1700 24.5951 110.0000
C 17.0400 25.8249 110.0000
C 19.8800 25.8249 110.0000
C 22.0100 24.5951 110.0000
C 23.4300 24.5951 110.0000
C 21.3000 25.8249 110.0000
C 24.1400 25.8249 110.0000
C 26.2700 24.5951 110.0000
C 27.6900 24.5951 110.0000
C 25.5600 25.8249 110.0000
C 28.4000 25.8249 110.0000
C 30.5300 24.5951 110.0000
C 31.9500 24.5951 110.0000
C 29.8200 25.8249 110.0000
C 32.6600 25.8249 110.0000
C  4.9700 27.0546 110.0000
C  6.3900 27.0546 110.0000
C  4.2600 28.2844 110.0000
C  7.1000 28.2844 110.0000
C  9.2300 27.0546 110.0000
C 10.6500 27.0546 110.0000
C  8.5200 28.2844 110.0000
C 11.3600 28.2844 110.0000
C 13.4900 27.0546 110.0000
C 14.9100 27.0546 110.0000
C 12.7800 28.2844 110.0000
C 15.6200 28.2844 110.0000
C 17.7500 27.0546 110.0000
C 19.1700 27.0546 110.0000
C 17.0400 28.2844 110.0000
C 19.8800 28.2844 110.0000
C 22.0100 27.0546 110.0000
C 23.4300 27.0546 110.0000
C 21.3000 28.2844 110.0000
C 24.1400 28.2844 110.0000
C 26.2700 27.0546 110.0000
C 27.6900 27.0546 110.0000
C 25.5600 28.2844 110.0000
C 28.4000 28.2844 110.0000
C 30.5300 27.0546 110.0000
C 31.9500 27.0546 110.0000
C 29.8200 28.2844 110.0000
C 32.6600 28.2844 110.0000
O 17.4514  9.4908 59.8706
O 19.5564  9.5508 59.4973
O 15.4590 10.6425 60.1300
O 21.3656 10.7101 60.1550
O 14.4932 12.5167 60.5043
O 22.4381 12.4665 59.5085
O 14.5954 14.6743 59.9037
O 22.3373 14.6624 60.0793
O 15.4798 16.4979 60.5958
O 17.4686 17.5911 60.3386
O 19.3932 17.5409 59.6595
O 21.3923 16.4709 59.4035
H 16.8837 10.1618 59.6190
H 18.7457  9.4446 59.1265
H 16.3280 10.4958 60.3785
H 20.4708 10.5164 60.3126
H 14.8206 11.7720 60.8643
H 22.1042 11.6542 59.1954
H 14.9197 13.8241 59.7636
H 22.0256 13.8097 60.2126
H 14.9270 15.8119 60.8886
H 16.9537 16.8915 60.4091
H 19.9111 16.8358 59.5923
H 21.9397 15.7833 59.1044
