832
ÐíÍ  0.000000
C  4.9965  0.0327 75.9643
C  6.3900  0.0000 75.9643
C  4.2966  1.2408 75.9643
C  7.1000  1.2298 75.9643
C  9.2300  0.0000 75.9643
C 10.6500  0.0000 75.9643
C  8.5200  1.2298 75.9643
C 11.3600  1.2298 75.9643
C 13.4900  0.0000 75.9643
C 14.9100  0.0000 75.9643
C 12.7800  1.2298 75.9643
C 15.6200  1.2298 75.9643
C 17.7500  0.0000 75.9643
C 19.1700  0.0000 75.9643
C 17.0400  1.2298 75.9643
C 19.8800  1.2298 75.9643
C 22.0100  0.0000 75.9643
C 23.4300  0.0000 75.9643
C 21.3000  1.2298 75.9643
C 24.1400  1.2298 75.9643
C 26.2700  0.0000 75.9643
C 27.6900  0.0000 75.9643
C 25.5600  1.2298 75.9643
C 28.4000  1.2298 75.9643
C 30.5300  0.0000 75.9643
C 31.9500  0.0000 75.9643
C 29.8200  1.2298 75.9643
C 32.6600  1.2298 75.9643
C  4.9700  2.4595 75.9643
C  6.3900  2.4595 75.9643
C  4.2600  3.6893 75.9643
C  7.1000  3.6893 75.9643
C  9.2300  2.4595 75.9643
C 10.6500  2.4595 75.9643
C  8.5200  3.6893 75.9643
C 11.3600  3.6893 75.9643
C 13.4900  2.4595 75.9643
C 14.9100  2.4595 75.9643
C 12.7800  3.6893 75.9643
C 15.5973  3.5850 76.0476
C 17.7500  2.4595 75.9643
C 19.1700  2.4595 75.9643
C 16.9852  3.5695 76.0390
C 19.8800  3.6893 75.9643
C 22.0100  2.4595 75.9643
C 23.4300  2.4595 75.9643
C 21.3000  3.6893 75.9643
C 24.1400  3.6893 75.9643
C 26.2700  2.4595 75.9643
C 27.6900  2.4595 75.9643
C 25.5600  3.6893 75.9643
C 28.4000  3.6893 75.9643
C 30.5300  2.4595 75.9643
C 31.9500  2.4595 75.9643
C 29.8200  3.6893 75.9643
C 32.6600  3.6893 75.9643
C  4.9700  4.9190 75.9643
C  6.3900  4.9190 75.9643
C  4.2600  6.1488 75.9643
C  7.1000  6.1488 75.9643
C  9.2300  4.9190 75.9643
C 10.6335  4.9220 76.0241
C  8.5200  6.1488 75.9643
C 11.2952  6.1714 76.1433
C 13.4424  4.8320 76.1320
C 14.8455  4.7119 76.1339
C 12.7050  6.0289 76.2289
C 15.5794  5.7921 75.9934
C 17.6873  4.6915 75.9645
C 19.0568  4.7164 75.9052
C 16.9005  5.7388 75.7304
C 19.7581  5.7089 75.4782
C 22.0100  4.9190 75.9643
C 23.4300  4.9190 75.9643
C 21.1201  5.8340 75.4981
C 24.1899  6.1045 75.8718
C 26.2700  4.9190 75.9643
C 27.6900  4.9190 75.9643
C 25.5600  6.1488 75.9643
C 28.4000  6.1488 75.9643
C 30.5300  4.9190 75.9643
C 31.9500  4.9190 75.9643
C 29.8200  6.1488 75.9643
C 32.6600  6.1488 75.9643
C  4.9700  7.3785 75.9643
C  6.3900  7.3785 75.9643
C  4.2600  8.6083 75.9643
C  7.1000  8.6083 75.9643
C  9.1604  7.3850 76.0734
C 10.5334  7.4239 76.1700
C  8.4385  8.6016 76.0767
C 10.9037  8.8009 76.0873
C 13.5281  7.0865 76.1940
C 14.8038  6.8063 75.8313
C 23.8271  7.3149 75.3471
C 24.6185  8.4186 75.2729
C 26.3341  7.3217 75.9471
C 27.6900  7.3785 75.9643
C 25.8282  8.5452 75.7500
C 28.4000  8.6083 75.9643
C 30.5300  7.3785 75.9643
C 31.9500  7.3785 75.9643
C 29.8200  8.6083 75.9643
C 32.6600  8.6083 75.9643
C  4.9700  9.8380 75.9643
C  6.3900  9.8380 75.9643
C  4.2600 11.0678 75.9643
C  6.9512 11.0893 76.1162
C  8.9319  9.9027 76.1971
C 10.2218  9.9930 76.1153
C  8.2646 11.1167 76.2401
C 26.5063  9.7413 75.7423
C 27.8160  9.8223 75.9450
C 28.4955 11.0275 75.9594
C 30.5300  9.8380 75.9643
C 31.9500  9.8380 75.9643
C 29.8200 11.0678 75.9643
C 32.6600 11.0678 75.9643
C  4.9700 12.2976 75.9643
C  6.2936 12.3116 76.1094
C  4.2600 13.5273 75.9643
C  6.9057 13.5566 76.2194
C  8.8408 12.3794 76.3128
C 10.1180 12.4567 76.0262
C  8.2182 13.5959 76.3432
C 26.6409 12.0949 75.5220
C 27.8925 12.2346 75.9099
C 26.1800 13.2535 75.2053
C 28.4940 13.5001 75.9670
C 30.5300 12.2976 75.9643
C 31.9500 12.2976 75.9643
C 29.8200 13.5273 75.9643
C 32.6600 13.5273 75.9643
C  4.9700 14.7571 75.9643
C  6.3022 14.7870 76.1104
C  4.2600 15.9868 75.9643
C  6.9861 16.0105 76.1098
C  8.8584 14.8282 76.3226
C  8.3236 16.0591 76.2070
C 10.7037 16.0191 75.6619
C 26.6247 14.4926 75.5079
C 27.8527 14.7249 75.9198
C 28.4127 16.0146 75.9551
C 30.5300 14.7571 75.9643
C 31.9500 14.7571 75.9643
C 29.8257 15.9974 75.9813
C 32.6600 15.9868 75.9643
C  4.9700 17.2166 75.9643
C  6.3900 17.2166 75.9643
C  4.2600 18.4463 75.9643
C  7.1000 18.4463 75.9643
C  9.0382 17.2787 76.0735
C 10.3550 17.2956 75.7786
C  8.4654 18.4975 76.0021
C 11.1281 18.4129 75.4999
C 26.3102 17.5529 75.6909
C 27.6860 17.2625 75.9173
C 25.6104 18.7357 75.7465
C 28.4000 18.4463 75.9643
C 30.5300 17.2166 75.9643
C 31.9500 17.2166 75.9643
C 29.8200 18.4463 75.9643
C 32.6600 18.4463 75.9643
C  4.9700 19.6761 75.9643
C  6.3900 19.6761 75.9643
C  4.2600 20.9059 75.9643
C  7.1000 20.9059 75.9643
C  9.2300 19.6761 75.9643
C 10.6381 19.6917 75.8178
C  8.5200 20.9059 75.9643
C 11.3637 20.9214 75.8526
C 13.7029 20.1330 75.3535
C 12.7833 21.0260 75.8312
C 15.7291 21.2965 75.9597
C 17.1029 21.3324 76.0263
C 20.0073 21.2958 76.0165
C 23.5018 20.0235 75.6764
C 21.3788 21.1961 75.9626
C 24.2012 21.0988 75.9649
C 26.3109 19.8260 75.9567
C 27.6900 19.6761 75.9643
C 25.5863 20.9999 75.9763
C 28.4000 20.9059 75.9643
C 30.5300 19.6761 75.9643
C 31.9500 19.6761 75.9643
C 29.8200 20.9059 75.9643
C 32.6600 20.9059 75.9643
C  4.9700 22.1356 75.9643
C  6.3900 22.1356 75.9643
C  4.2600 23.3654 75.9643
C  7.1000 23.3654 75.9643
C  9.2300 22.1356 75.9643
C 10.6500 22.1356 75.9643
C  8.5200 23.3654 75.9643
C 11.3600 23.3654 75.9643
C 13.4974 22.2174 75.9876
C 14.9036 22.3288 76.0854
C 12.7800 23.3654 75.9643
C 15.6424 23.4777 76.1007
C 17.8293 22.4219 76.2316
C 19.2258 22.3975 76.2191
C 17.0526 23.5306 76.1766
C 19.9292 23.5270 76.1615
C 22.0769 22.3086 76.0722
C 23.4502 22.2379 75.9958
C 21.3204 23.4606 76.0817
C 24.1400 23.3654 75.9643
C 26.2700 22.1356 75.9643
C 27.6900 22.1356 75.9643
C 25.5600 23.3654 75.9643
C 28.4000 23.3654 75.9643
C 30.5300 22.1356 75.9643
C 31.9500 22.1356 75.9643
C 29.8200 23.3654 75.9643
C 32.6600 23.3654 75.9643
C  4.9700 24.5951 75.9643
C  6.3900 24.5951 75.9643
C  4.2600 25.8249 75.9643
C  7.1000 25.8249 75.9643
C  9.2300 24.5951 75.9643
C 10.6500 24.5951 75.9643
C  8.5200 25.8249 75.9643
C 11.3600 25.8249 75.9643
C 13.4900 24.5951 75.9643
C 14.9100 24.5951 75.9643
C 12.7800 25.8249 75.9643
C 15.6200 25.8249 75.9643
C 17.7722 24.6811 76.0775
C 19.1761 24.6737 76.0747
C 17.0400 25.8249 75.9643
C 19.8800 25.8249 75.9643
C 22.0100 24.5951 75.9643
C 23.4300 24.5951 75.9643
C 21.3000 25.8249 75.9643
C 24.1400 25.8249 75.9643
C 26.2700 24.5951 75.9643
C 27.6900 24.5951 75.9643
C 25.5600 25.8249 75.9643
C 28.4000 25.8249 75.9643
C 30.5300 24.5951 75.9643
C 31.9500 24.5951 75.9643
C 29.8200 25.8249 75.9643
C 32.6600 25.8249 75.9643
C  4.9700 27.0546 75.9643
C  6.3900 27.0546 75.9643
C  4.2000 28.3883 75.9643
C  7.1000 28.2844 75.9643
C  9.2300 27.0546 75.9643
C 10.6500 27.0546 75.9643
C  8.5200 28.2844 75.9643
C 11.3600 28.2844 75.9643
C 13.4900 27.0546 75.9643
C 14.9100 27.0546 75.9643
C 12.7800 28.2844 75.9643
C 15.6200 28.2844 75.9643
C 17.7500 27.0546 75.9643
C 19.1700 27.0546 75.9643
C 17.0400 28.2844 75.9643
C 19.8800 28.2844 75.9643
C 22.0100 27.0546 75.9643
C 23.4300 27.0546 75.9643
C 21.3000 28.2844 75.9643
C 24.1400 28.2844 75.9643
C 26.2700 27.0546 75.9643
C 27.6900 27.0546 75.9643
C 25.5600 28.2844 75.9643
C 28.4000 28.2844 75.9643
C 30.5300 27.0546 75.9643
C 31.9500 27.0546 75.9643
C 29.8200 28.2844 75.9643
C 32.7200 28.3883 75.9643
C  4.9700  0.0000 60.0000
C  6.3900  0.0000 60.0000
C  4.2600  1.2298 60.0000
C  7.1000  1.2298 60.0000
C  9.2300  0.0000 60.0000
C 10.6500  0.0000 60.0000
C  8.5200  1.2298 60.0000
C 11.3600  1.2298 60.0000
C 13.4900  0.0000 60.0000
C 14.9100  0.0000 60.0000
C 12.7800  1.2298 60.0000
C 15.6200  1.2298 60.0000
C 17.7500  0.0000 60.0000
C 19.1700  0.0000 60.0000
C 17.0400  1.2298 60.0000
C 19.8800  1.2298 60.0000
C 22.0100  0.0000 60.0000
C 23.4300  0.0000 60.0000
C 21.3000  1.2298 60.0000
C 24.1400  1.2298 60.0000
C 26.2700  0.0000 60.0000
C 27.6900  0.0000 60.0000
C 25.5600  1.2298 60.0000
C 28.4000  1.2298 60.0000
C 30.5300  0.0000 60.0000
C 31.9500  0.0000 60.0000
C 29.8200  1.2298 60.0000
C 32.6600  1.2298 60.0000
C  4.9700  2.4595 60.0000
C  6.3900  2.4595 60.0000
C  4.2600  3.6893 60.0000
C  7.1000  3.6893 60.0000
C  9.2300  2.4595 60.0000
C 10.6500  2.4595 60.0000
C  8.5200  3.6893 60.0000
C 11.3600  3.6893 60.0000
C 13.4900  2.4595 60.0000
C 14.9100  2.4595 60.0000
C 12.7800  3.6893 60.0000
C 15.6103  3.5753 60.2101
C 17.7581  2.4061 60.1212
C 19.1685  2.4304 60.1295
C 16.9858  3.5339 60.3281
C 19.8747  3.6300 60.3411
C 22.0100  2.4595 60.0000
C 23.4300  2.4595 60.0000
C 21.2977  3.6643 60.1888
C 24.1400  3.6893 60.0000
C 26.2700  2.4595 60.0000
C 27.6900  2.4595 60.0000
C 25.5600  3.6893 60.0000
C 28.4000  3.6893 60.0000
C 30.5300  2.4595 60.0000
C 31.9500  2.4595 60.0000
C 29.8200  3.6893 60.0000
C 32.6600  3.6893 60.0000
C  4.9700  4.9190 60.0000
C  6.3900  4.9190 60.0000
C  4.2600  6.1488 60.0000
C  7.1000  6.1488 60.0000
C  9.2300  4.9190 60.0000
C 10.6500  4.9190 60.0000
C  8.5200  6.1488 60.0000
C 11.3457  6.0279 60.0787
C 13.4847  4.7760 60.1887
C 14.8524  4.6862 60.4129
C 12.7281  5.8787 60.2753
C 15.4517  5.6442 61.1351
C 17.6365  4.5897 60.8636
C 19.0286  4.6288 60.8773
C 22.1059  4.8406 60.2279
C 23.4951  4.8748 60.0156
C 21.8234  6.0658 60.7687
C 24.3029  6.0301 59.9175
C 26.2700  4.9190 60.0000
C 27.6900  4.9190 60.0000
C 25.6681  6.1040 59.8747
C 28.4000  6.1488 60.0000
C 30.5300  4.9190 60.0000
C 31.9500  4.9190 60.0000
C 29.8200  6.1488 60.0000
C 32.6600  6.1488 60.0000
C  4.9700  7.3785 60.0000
C  6.3900  7.3785 60.0000
C  4.2600  8.6083 60.0000
C  7.1000  8.6083 60.0000
C  9.2019  7.3323 60.0036
C 10.5862  7.1745 60.0934
C  8.5067  8.5746 60.0020
C 11.2617  8.2417 60.3928
C 13.3427  6.8643 60.8543
C 23.8411  7.2561 60.0753
C 24.5791  8.4224 59.9752
C 26.4295  7.2914 59.7852
C 27.7824  7.3494 59.8785
C 25.8789  8.5185 59.7221
C 28.4851  8.5656 59.8598
C 30.5300  7.3785 60.0000
C 31.9500  7.3785 60.0000
C 29.8200  8.6083 60.0000
C 32.6600  8.6083 60.0000
C  4.9700  9.8380 60.0000
C  6.3900  9.8380 60.0000
C  4.2600 11.0678 60.0000
C  7.1000 11.0678 60.0000
C  9.2234  9.7769 60.0594
C 10.5846  9.4443 60.3718
C  8.5200 11.0678 60.0000
C 26.5767  9.7347 59.6755
C 27.9088  9.7956 59.7122
C 26.0478 10.9371 59.8555
C 28.5883 11.0279 59.7221
C 30.5618  9.8188 59.9639
C 31.9500  9.8380 60.0000
C 29.9362 11.0518 59.8567
C 32.6600 11.0678 60.0000
C  4.9700 12.2976 60.0000
C  6.3900 12.2976 60.0000
C  4.2600 13.5273 60.0000
C  7.1000 13.5273 60.0000
C  9.1381 12.3081 60.0336
C 10.3898 12.5088 60.4140
C  8.5200 13.5273 60.0000
C 10.8906 13.7406 60.6543
C 26.6849 12.1327 59.8406
C 27.9925 12.2352 59.6867
C 28.6467 13.4482 59.7429
C 30.5968 12.2874 59.8912
C 31.9500 12.2976 60.0000
C 29.9467 13.5203 59.8321
C 32.6600 13.5273 60.0000
C  4.9700 14.7571 60.0000
C  6.3900 14.7571 60.0000
C  4.2600 15.9868 60.0000
C  7.1000 15.9868 60.0000
C  9.2300 14.7571 60.0000
C 10.4850 14.8969 60.2872
C  8.5200 15.9868 60.0000
C 26.7980 14.4580 60.1249
C 28.0455 14.6398 59.7913
C 28.6127 15.9163 59.8069
C 30.5815 14.7617 59.9135
C 31.9500 14.7571 60.0000
C 29.9342 15.9761 59.8938
C 32.6600 15.9868 60.0000
C  4.9700 17.2166 60.0000
C  6.3900 17.2166 60.0000
C  4.2600 18.4463 60.0000
C  7.1000 18.4463 60.0000
C  9.2300 17.2166 60.0000
C 10.6027 17.2735 60.0453
C  8.5200 18.4463 60.0000
C 11.3600 18.4463 60.0000
C 12.5280 18.5681 60.4604
C 24.1664 19.2054 59.8660
C 26.6113 16.7941 59.9542
C 27.9048 17.0978 59.7849
C 25.4649 18.9310 59.6701
C 28.4313 18.4334 59.7910
C 30.5300 17.2166 60.0000
C 31.9500 17.2166 60.0000
C 29.8307 18.4483 59.9380
C 32.6600 18.4463 60.0000
C  4.9700 19.6761 60.0000
C  6.3900 19.6761 60.0000
C  4.2600 20.9059 60.0000
C  7.1000 20.9059 60.0000
C  9.2300 19.6761 60.0000
C 10.6500 19.6761 60.0000
C  8.5200 20.9059 60.0000
C 11.3600 20.9059 60.0000
C 13.2361 19.6914 60.4308
C 12.7800 20.9059 60.0000
C 15.8100 21.1875 60.4018
C 17.1624 21.3172 60.4207
C 20.0327 21.2682 60.2807
C 22.1285 20.2585 60.2370
C 23.4386 20.2229 59.8207
C 21.3607 21.2696 60.0728
C 24.2137 21.2520 59.6820
C 26.3418 19.9093 59.6017
C 27.7316 19.7064 59.7367
C 25.6291 21.1100 59.6644
C 28.4265 20.9221 59.8807
C 30.5300 19.6761 60.0000
C 31.9500 19.6761 60.0000
C 29.8200 20.9059 60.0000
C 32.6600 20.9059 60.0000
C  4.9700 22.1356 60.0000
C  6.3900 22.1356 60.0000
C  4.2600 23.3654 60.0000
C  7.1000 23.3654 60.0000
C  9.2300 22.1356 60.0000
C 10.6500 22.1356 60.0000
C  8.5200 23.3654 60.0000
C 11.3600 23.3654 60.0000
C 13.4900 22.1356 60.0000
C 14.9100 22.1356 60.0000
C 12.7800 23.3654 60.0000
C 15.6200 23.3654 60.0000
C 17.8573 22.3103 60.0313
C 19.2118 22.2791 60.0236
C 17.0400 23.3654 60.0000
C 19.8800 23.3654 60.0000
C 22.0723 22.3545 59.8638
C 23.4603 22.3410 59.8074
C 21.3008 23.4258 59.9505
C 24.1728 23.4217 59.9351
C 26.3332 22.2270 59.8608
C 27.7263 22.1583 59.9119
C 25.5600 23.3654 60.0000
C 28.4000 23.3654 60.0000
C 30.5300 22.1356 60.0000
C 31.9500 22.1356 60.0000
C 29.8200 23.3654 60.0000
C 32.6600 23.3654 60.0000
C  4.9700 24.5951 60.0000
C  6.3900 24.5951 60.0000
C  4.2600 25.8249 60.0000
C  7.1000 25.8249 60.0000
C  9.2300 24.5951 60.0000
C 10.6500 24.5951 60.0000
C  8.5200 25.8249 60.0000
C 11.3600 25.8249 60.0000
C 13.4900 24.5951 60.0000
C 14.9100 24.5951 60.0000
C 12.7800 25.8249 60.0000
C 15.6200 25.8249 60.0000
C 17.7500 24.5951 60.0000
C 19.1700 24.5951 60.0000
C 17.0400 25.8249 60.0000
C 19.8800 25.8249 60.0000
C 22.0100 24.5951 60.0000
C 23.4300 24.5951 60.0000
C 21.3000 25.8249 60.0000
C 24.1400 25.8249 60.0000
C 26.2700 24.5951 60.0000
C 27.6900 24.5951 60.0000
C 25.5600 25.8249 60.0000
C 28.4000 25.8249 60.0000
C 30.5300 24.5951 60.0000
C 31.9500 24.5951 60.0000
C 29.8200 25.8249 60.0000
C 32.6600 25.8249 60.0000
C  4.9700 27.0546 60.0000
C  6.3900 27.0546 60.0000
C  4.2000 28.3883 60.0000
C  7.1000 28.2844 60.0000
C  9.2300 27.0546 60.0000
C 10.6500 27.0546 60.0000
C  8.5200 28.2844 60.0000
C 11.3600 28.2844 60.0000
C 13.4900 27.0546 60.0000
C 14.9100 27.0546 60.0000
C 12.7800 28.2844 60.0000
C 15.6200 28.2844 60.0000
C 17.7500 27.0546 60.0000
C 19.1700 27.0546 60.0000
C 17.0400 28.2844 60.0000
C 19.8800 28.2844 60.0000
C 22.0100 27.0546 60.0000
C 23.4300 27.0546 60.0000
C 21.3000 28.2844 60.0000
C 24.1400 28.2844 60.0000
C 26.2700 27.0546 60.0000
C 27.6900 27.0546 60.0000
C 25.5600 28.2844 60.0000
C 28.4000 28.2844 60.0000
C 30.5300 27.0546 60.0000
C 31.9500 27.0546 60.0000
C 29.8200 28.2844 60.0000
C 32.7200 28.3883 60.0000
C 26.1876 13.2725 60.2995
C 25.4791 15.6427 61.4674
C 24.7965 16.6957 61.6180
C 22.9974 18.7234 61.5600
C 22.0790 19.6426 61.4220
C 19.3887 20.8327 61.3427
C 18.0346 20.9222 61.3392
C 15.2767 20.4599 61.3497
C 14.1385 19.7967 61.3777
C 12.5005 17.6272 61.4177
C 11.9085 16.4226 61.4215
C 11.0983 16.0786 60.4169
C 11.5353 13.5413 61.7487
C 11.6746 12.2949 61.8950
C 12.2700  9.8432 61.8501
C 12.8974  8.7176 61.8456
C 14.5834  6.6346 61.4987
C 19.5864  5.5922 61.6694
C 20.8171  6.1679 61.6567
C 22.8659  8.0661 61.6431
C 23.6617  9.1588 61.6069
C 25.0359 11.6058 61.4847
C 25.5435 12.8482 61.4067
C 25.6724 13.5436 62.5555
C 25.6009 14.8798 62.5601
C 25.4961 15.5545 63.7501
C 24.9455 16.8131 63.8166
C 24.3843 17.2819 62.7232
C 23.5107 18.3253 62.7096
C 23.1589 19.0136 63.7951
C 22.0544 19.8542 63.7238
C 21.3977 20.0963 62.5167
C 20.1370 20.6500 62.4811
C 19.5199 20.8990 63.6841
C 18.1056 20.9664 63.6841
C 17.4001 20.8990 62.4560
C 16.0242 20.5652 62.4560
C 15.3662 20.3018 63.6841
C 14.1400 19.5939 63.6841
C 13.6934 19.1969 62.5161
C 12.8640 18.1457 62.5719
C 12.4006 17.5721 63.7273
C 11.8783 16.3307 63.7621
C 11.8094 15.6952 62.5813
C 11.6762 14.3841 62.7205
C 11.6183 13.7279 63.9251
C 11.8344 12.4080 64.0585
C 12.0115 11.7179 62.9822
C 12.3845 10.5056 62.9633
C 12.7727  9.9017 64.0735
C 13.4959  8.7986 64.0125
C 13.7443  8.2672 62.8178
C 14.6570  7.2879 62.6866
C 15.4644  6.9864 63.7892
C 16.7206  6.4209 63.7657
C 17.4044  5.9893 62.6352
C 18.7700  5.9714 62.7087
C 19.4153  6.2862 63.8744
C 20.7184  6.6500 63.9134
C 21.3056  6.8431 62.7427
C 22.3810  7.6618 62.7752
C 23.0523  8.1163 63.8570
C 24.0413  9.0843 63.8197
C 24.1916  9.7829 62.6812
C 24.8672 10.9657 62.6488
C 25.3880 11.5164 63.7759
C 25.7058 12.8576 63.7384
C 25.9075 13.5273 64.9121
C 25.7729 14.9367 64.9121
C 25.6058 15.6255 66.1401
C 25.0796 16.9399 66.1401
C 24.7252 17.5537 64.9121
C 23.8500 18.6667 64.9121
C 23.3371 19.1557 66.1401
C 22.1837 19.9770 66.1401
C 21.5538 20.3018 64.9121
C 20.2158 20.7649 64.9121
C 19.5199 20.8990 66.1401
C 18.1056 20.9664 66.1401
C 17.4001 20.8990 64.9121
C 16.0242 20.5652 64.9121
C 15.3662 20.3018 66.1401
C 14.1400 19.5939 66.1401
C 13.5829 19.1557 64.9121
C 12.6059 18.1310 64.9121
C 12.1948 17.5537 66.1401
C 11.5460 16.2953 66.1401
C 11.5324 15.6965 64.9527
C 11.4022 14.3570 65.0527
C 11.2249 13.6279 66.2154
C 11.4741 12.2834 66.3217
C 11.8654 11.7007 65.2042
C 12.3927 10.4541 65.2219
C 12.5891  9.7647 66.3618
C 13.4160  8.6686 66.3311
C 13.9494  8.2448 65.1434
C 14.9738  7.3635 65.0420
C 15.5152  6.9863 66.2475
C 16.7760  6.4783 66.2211
C 17.3947  6.3449 64.9966
C 18.7575  6.2608 65.0454
C 19.4824  6.2825 66.2219
C 20.8462  6.5777 66.2168
C 21.4349  6.9224 65.0455
C 22.6656  7.5849 65.0159
C 23.3371  7.8989 66.1401
C 24.3141  8.9236 66.1401
C 24.7252  9.5009 64.9121
C 25.3740 10.7593 64.9121
C 25.6058 11.4291 66.1401
C 25.8738 12.8194 66.1401
C 25.9075 13.5273 67.3681
C 25.7729 14.9367 67.3681
C 25.4701 15.5878 68.5175
C 24.9703 16.8948 68.5350
C 24.7252 17.5537 67.3681
C 23.8500 18.6667 67.3681
C 23.3371 19.1557 68.5962
C 22.1837 19.9770 68.5962
C 21.5538 20.3018 67.3681
C 20.2158 20.7649 67.3681
C 19.5199 20.8990 68.5962
C 18.1056 20.9664 68.5962
C 17.4001 20.8990 67.3681
C 16.0242 20.5652 67.3681
C 15.3662 20.3018 68.5962
C 14.1400 19.5939 68.5962
C 13.5829 19.1557 67.3681
C 12.6059 18.1310 67.3681
C 12.1948 17.5537 68.5962
C 11.5460 16.2953 68.5962
C 11.3142 15.6255 67.3681
C 11.0462 14.2352 67.3681
C 11.0125 13.5273 68.5962
C 11.1935 12.1504 68.6530
C 11.5075 11.5424 67.4837
C 12.0781 10.2715 67.5079
C 12.3058  9.5751 68.6645
C 13.1931  8.4912 68.6747
C 13.7915  8.0890 67.5003
C 14.8916  7.2563 67.4597
C 15.4378  6.8463 68.6548
C 16.7424  6.3527 68.6280
C 17.4323  6.2690 67.4228
C 18.8176  6.1599 67.4151
C 19.5199  6.1556 68.5962
C 20.8958  6.4894 68.5962
C 21.5538  6.7528 67.3681
C 22.7800  7.4607 67.3681
C 23.3371  7.8989 68.5962
C 24.3141  8.9236 68.5962
C 24.7252  9.5009 67.3681
C 25.3740 10.7593 67.3681
C 25.4932 11.4112 68.5490
C 25.7398 12.7826 68.5171
C 25.5769 13.4509 69.6718
C 25.4432 14.8292 69.6467
C 25.1000 15.4418 70.7805
C 24.6616 16.7373 70.8228
C 24.5038 17.4525 69.6954
C 23.7227 18.5936 69.7652
C 23.1547 18.9931 70.9550
C 22.0899 19.8553 70.9981
C 21.5538 20.3018 69.8242
C 20.2158 20.7649 69.8242
C 19.5199 20.8990 71.0522
C 18.1056 20.9664 71.0522
C 17.4001 20.8990 69.8242
C 16.0242 20.5652 69.8242
C 15.3549 20.1848 70.9725
C 14.1335 19.5010 71.0047
C 13.5829 19.1557 69.8242
C 12.6059 18.1310 69.8242
C 12.1948 17.5537 71.0522
C 11.5460 16.2953 71.0522
C 11.3142 15.6255 69.8242
C 11.0462 14.2352 69.8242
C 11.0125 13.5273 71.0522
C 11.1471 12.1179 71.0522
C 11.3142 11.4291 69.8242
C 11.8404 10.1147 69.8242
C 12.1948  9.5009 71.0522
C 13.0700  8.3879 71.0522
C 13.6287  7.9382 69.8627
C 14.7748  7.1187 69.8525
C 15.3662  6.7528 71.0522
C 16.7042  6.2897 71.0522
C 17.4001  6.1556 69.8242
C 18.8144  6.0882 69.8242
C 19.5199  6.1556 71.0522
C 20.8958  6.4894 71.0522
C 21.5538  6.7528 69.8242
C 22.7800  7.4607 69.8242
C 23.2224  7.9052 71.0012
C 24.0979  8.9455 70.9375
C 24.5803  9.4978 69.7690
C 25.1444 10.7458 69.7175
C 25.1762 11.3933 70.8881
C 25.3730 12.7272 70.8204
C 25.2477 13.3625 71.9678
C 25.1044 14.7001 71.8957
C 24.9607 15.3606 73.0040
C 24.6017 16.5882 73.0854
C 24.2753 17.2710 71.9975
C 23.5562 18.3940 72.1059
C 23.1591 18.7576 73.3542
C 22.0379 19.5169 73.3566
C 21.4401 19.9829 72.1981
C 20.1479 20.4860 72.2052
C 19.3998 20.2678 73.3299
C 18.0251 20.3346 73.3040
C 17.3672 20.5908 72.1549
C 16.0138 20.2483 72.1399
C 15.2922 19.8926 73.2542
C 14.0346 19.3818 73.3363
C 13.5300 19.0225 72.1671
C 12.5400 18.0826 72.2537
C 12.0381 17.5929 73.4735
C 11.4935 16.3203 73.4430
C 11.3142 15.6255 72.2802
C 11.0462 14.2352 72.2802
C 11.0125 13.5273 73.5083
C 11.1471 12.1179 73.5083
C 11.3142 11.4291 72.2802
C 11.8404 10.1147 72.2802
C 12.1948  9.5009 73.5083
C 13.0700  8.3879 73.5083
C 13.5829  7.8989 72.2802
C 14.7363  7.0776 72.2802
C 15.3662  6.7528 73.5083
C 16.7156  6.3357 73.4926
C 17.4001  6.1556 72.2802
C 18.8144  6.0882 72.2802
C 19.5475  6.2093 73.4126
C 20.8878  6.4834 73.4597
C 21.5538  6.7528 72.2802
C 22.6751  7.4783 72.1908
C 23.1745  7.8849 73.3435
C 23.9950  8.9332 73.2729
C 24.3513  9.5302 72.1064
C 24.8858 10.7583 72.0773
C 25.0835 11.3712 73.2553
C 25.2443 12.6741 73.1484
C 25.4740 13.4735 74.1417
C 25.3079 14.7255 74.0579
C 24.6404 17.1692 74.2566
C 23.9420 18.2535 74.3817
C 22.1344 20.1289 75.5338
C 21.3779 19.6894 74.5094
C 20.0450 19.9596 74.4816
C 13.2693 19.2285 74.4791
C 12.1876 18.4168 74.5869
C 11.1966 15.5746 74.5363
C 11.0238 14.2230 74.5979
C 10.5656 13.7051 75.7408
C 11.2638 11.1950 74.6204
C 11.8575  9.9822 74.6310
C 13.6330  7.9375 74.5531
C 14.6901  7.1478 74.5844
C 17.5129  6.1582 74.6140
C 18.8844  6.1202 74.5503
C 21.6559  6.5874 74.5622
C 22.8157  7.2545 74.4940
C 24.5183  9.4083 74.3827
C 25.1150 10.6049 74.3813
C 26.0118 10.9182 75.3261
C 24.2604 18.9623 75.4374
C 25.5746 16.6520 75.0996
C 25.8085 15.3945 75.0324
C 15.0493 20.3442 75.3724
C 15.9081 20.0452 74.3939
C 17.2454 20.1644 74.3998
C 17.9268 20.4585 75.4676
C 19.2625 20.3873 75.4657
C 10.1255 14.8698 76.0838
C 10.6757 11.2939 75.7922
C 12.0602  9.0447 75.6283
C 13.0373  8.1707 75.6596
C 26.1800 15.5416 60.3310
C 23.7527 18.3002 60.5974
C 22.6938  7.1333 60.7085
C 11.1635 11.5936 60.9475
C 11.3391 10.3252 60.9725
C 12.5403  7.9358 60.9066
C 16.7891  5.5039 61.5022
C 24.2920  9.5623 60.5551
C 24.9456 10.7286 60.5024
C 25.6631 17.6554 59.9187
C 24.5968 17.4082 60.6095
