1482
29.820         29.472          200.000
C 23.8580 15.0118 60.4926
C 23.1900 15.5064 61.4951
C 22.5320 16.6801 61.4952
C 22.4624 17.5493 60.5035
C 20.6691 18.6633 61.3299
C 19.4102 19.1112 61.3176
C 16.7960 18.7858 60.2791
C 16.4793 18.3415 61.4846
C 15.2857 17.6299 61.4974
C 14.7392 17.5883 60.2900
C 13.1943 15.4671 61.3370
C 12.9943 14.1523 61.3981
C 13.0107 12.0212 60.4778
C 13.6572 11.4987 61.4643
C 14.3213 10.3194 61.4299
C 16.2748  8.3976 61.3240
C 17.5296  7.9348 61.3080
C 20.1248  8.2157 60.2475
C 20.4379  8.6647 61.4608
C 21.6301  9.3782 61.4594
C 23.7193 11.5724 61.2897
C 23.9669 12.8833 61.3157
C 23.8764 13.5273 62.4560
C 23.5033 14.8396 62.5923
C 23.3207 15.5249 63.7566
C 22.6027 16.7281 63.7749
C 22.1136 17.2493 62.6057
C 21.1682 18.2180 62.4560
C 20.5328 18.5314 63.6841
C 19.1670 18.8973 63.6841
C 18.5479 18.9574 62.4551
C 17.1577 18.7042 62.5523
C 16.3872 18.5314 63.6841
C 15.1843 17.7614 63.7219
C 14.6570 17.1925 62.5789
C 13.7526 16.1216 62.4804
C 13.4861 15.5636 63.7138
C 13.1413 14.2162 63.7368
C 13.1423 13.5085 62.5660
C 13.3626 12.1624 62.5775
C 13.4559 11.4545 63.6841
C 14.1629 10.2300 63.6841
C 14.7084  9.7377 62.5431
C 15.7518  8.8366 62.4560
C 16.3872  8.5232 63.6841
C 17.7530  8.1573 63.6841
C 18.3769  8.0848 62.4556
C 19.7653  8.3305 62.5481
C 20.5328  8.5232 63.6841
C 21.7573  9.2302 63.6841
C 22.2806  9.8097 62.5379
C 23.1899 10.8956 62.4459
C 23.4641 11.4545 63.6841
C 23.8300 12.8203 63.6841
C 23.8764 13.5273 64.9121
C 23.6918 14.9292 64.9121
C 23.4641 15.6001 66.1401
C 22.7571 16.8246 66.1401
C 22.2491 17.3264 64.9540
C 21.1682 18.2180 64.9121
C 20.5328 18.5314 66.1401
C 19.1670 18.8973 66.1401
C 18.4600 18.9437 64.9121
C 17.0581 18.7591 64.9121
C 16.3872 18.5314 66.1401
C 15.1627 17.8244 66.1401
C 14.6301 17.3572 64.9121
C 13.7693 16.2355 64.9121
C 13.4559 15.6001 66.1401
C 13.0900 14.2343 66.1401
C 13.0436 13.5273 64.9121
C 13.2282 12.1254 64.9121
C 13.4559 11.4545 66.1401
C 14.1629 10.2300 66.1401
C 14.6301  9.6974 64.9121
C 15.7518  8.8366 64.9121
C 16.3872  8.5232 66.1401
C 17.7530  8.1573 66.1401
C 18.4600  8.1109 64.9121
C 19.8619  8.2955 64.9121
C 20.5328  8.5232 66.1401
C 21.7573  9.2302 66.1401
C 22.2899  9.6974 64.9121
C 23.1507 10.8191 64.9121
C 23.4641 11.4545 66.1401
C 23.8300 12.8203 66.1401
C 23.8764 13.5273 67.3681
C 23.6918 14.9292 67.3681
C 23.4641 15.6001 68.5962
C 22.7571 16.8246 68.5962
C 22.2899 17.3572 67.3681
C 21.1682 18.2180 67.3681
C 20.5328 18.5314 68.5962
C 19.1670 18.8973 68.5962
C 18.4600 18.9437 67.3681
C 17.0581 18.7591 67.3681
C 16.3872 18.5314 68.5962
C 15.1627 17.8244 68.5962
C 14.6301 17.3572 67.3681
C 13.7693 16.2355 67.3681
C 13.4559 15.6001 68.5962
C 13.0900 14.2343 68.5962
C 13.0436 13.5273 67.3681
C 13.2282 12.1254 67.3681
C 13.4559 11.4545 68.5962
C 14.1629 10.2300 68.5962
C 14.6301  9.6974 67.3681
C 15.7518  8.8366 67.3681
C 16.3872  8.5232 68.5962
C 17.7530  8.1573 68.5962
C 18.4600  8.1109 67.3681
C 19.8619  8.2955 67.3681
C 20.5328  8.5232 68.5962
C 21.7573  9.2302 68.5962
C 22.2899  9.6974 67.3681
C 23.1507 10.8191 67.3681
C 23.4641 11.4545 68.5962
C 23.8300 12.8203 68.5962
C 23.8764 13.5273 69.8242
C 23.6918 14.9292 69.8242
C 23.4641 15.6001 71.0522
C 22.7571 16.8246 71.0522
C 22.2899 17.3572 69.8242
C 21.1682 18.2180 69.8242
C 20.4794 18.4136 70.9720
C 19.1311 18.7993 70.9930
C 18.4600 18.9437 69.8242
C 17.0581 18.7591 69.8242
C 16.3872 18.5314 71.0522
C 15.1627 17.8244 71.0522
C 14.6301 17.3572 69.8242
C 13.7693 16.2355 69.8242
C 13.4559 15.6001 71.0522
C 13.0900 14.2343 71.0522
C 13.0436 13.5273 69.8242
C 13.2282 12.1254 69.8242
C 13.4559 11.4545 71.0522
C 14.1459 10.2728 70.9827
C 14.6301  9.6974 69.8242
C 15.7500  8.8916 69.7684
C 16.3565  8.7491 70.9528
C 17.7058  8.4675 70.9489
C 18.4372  8.2660 69.7907
C 19.8323  8.4483 69.8100
C 20.4099  8.8427 71.0225
C 21.6580  9.4531 71.0452
C 22.2899  9.6974 69.8242
C 23.1507 10.8191 69.8242
C 23.4641 11.4545 71.0522
C 23.8300 12.8203 71.0522
C 23.8764 13.5273 72.2802
C 23.6918 14.9292 72.2802
C 23.4641 15.6001 73.5083
C 22.6700 16.6949 73.3783
C 22.2116 17.2072 72.1992
C 21.0554 17.9694 72.1122
C 20.3437 18.1667 73.2139
C 19.0878 18.5928 73.2799
C 18.4154 18.7943 72.1613
C 17.0581 18.7591 72.2802
C 16.4055 18.5024 73.4973
C 15.1627 17.8244 73.5083
C 14.6301 17.3572 72.2802
C 13.7693 16.2355 72.2802
C 13.4559 15.6001 73.5083
C 13.1117 14.1865 73.4660
C 13.0436 13.5273 72.2802
C 13.2219 12.1433 72.2273
C 13.3306 11.4275 73.3555
C 13.9972 10.2683 73.3104
C 14.5534  9.8288 72.1465
C 15.6714  9.0963 72.0959
C 16.1818  8.8914 73.2812
C 17.5103  8.7249 73.2625
C 18.3084  8.6421 72.1475
C 19.6684  8.8334 72.2010
C 20.2029  9.1513 73.4328
C 21.4066  9.8032 73.4509
C 22.0430 10.0562 72.2511
C 22.9816 11.0667 72.2570
C 23.2092 11.8283 73.4016
C 23.7328 13.0638 73.4712
C 23.9205 13.8461 74.6068
C 23.8500 15.1456 74.7278
C 22.1021 17.2890 74.4168
C 20.9676 17.9067 74.3131
C 20.5490 18.4660 75.4062
C 18.5035 18.7333 74.4699
C 17.1718 18.7330 74.6181
C 14.6106 17.1870 74.6688
C 13.8416 16.0147 74.6383
C 12.8992 13.2996 74.5306
C 12.9283 11.9327 74.5288
C 14.2277  9.5927 74.4351
C 15.3672  8.9189 74.3874
C 18.0837  8.6378 74.4330
C 19.4142  8.8116 74.5084
C 20.0672  8.2321 75.4982
C 21.9996 10.3397 74.5748
C 22.8143 11.4073 74.5768
C  4.9700  0.0000 60.0000
C  6.3900  0.0000 60.0000
C  4.2600  1.2298 60.0000
C  7.1000  1.2298 60.0000
C  9.2300  0.0000 60.0000
C 10.6500  0.0000 60.0000
C  8.5200  1.2298 60.0000
C 11.3600  1.2298 60.0000
C 13.4900  0.0000 60.0000
C 14.9100  0.0000 60.0000
C 12.7800  1.2298 60.0000
C 15.6200  1.2298 60.0000
C 17.7500  0.0000 60.0000
C 19.1700  0.0000 60.0000
C 17.0400  1.2298 60.0000
C 19.8800  1.2298 60.0000
C 22.0100  0.0000 60.0000
C 23.4300  0.0000 60.0000
C 21.3000  1.2298 60.0000
C 24.1400  1.2298 60.0000
C 26.2700  0.0000 60.0000
C 27.6900  0.0000 60.0000
C 25.5600  1.2298 60.0000
C 28.4000  1.2298 60.0000
C 30.5300  0.0000 60.0000
C 31.9500  0.0000 60.0000
C 29.8200  1.2298 60.0000
C 32.6600  1.2298 60.0000
C  4.9700  2.4595 60.0000
C  6.3900  2.4595 60.0000
C  4.2600  3.6893 60.0000
C  7.1000  3.6893 60.0000
C  9.2300  2.4595 60.0000
C 10.6500  2.4595 60.0000
C  8.5200  3.6893 60.0000
C 11.3600  3.6893 60.0000
C 13.4900  2.4595 60.0000
C 14.9100  2.4595 60.0000
C 12.7800  3.6893 60.0000
C 15.6200  3.6893 60.0000
C 17.7500  2.4595 60.0000
C 19.1700  2.4595 60.0000
C 17.0400  3.6893 60.0000
C 19.8800  3.6893 60.0000
C 22.0100  2.4595 60.0000
C 23.4300  2.4595 60.0000
C 21.3000  3.6893 60.0000
C 24.1400  3.6893 60.0000
C 26.2700  2.4595 60.0000
C 27.6900  2.4595 60.0000
C 25.5600  3.6893 60.0000
C 28.4000  3.6893 60.0000
C 30.5300  2.4595 60.0000
C 31.9500  2.4595 60.0000
C 29.8200  3.6893 60.0000
C 32.6600  3.6893 60.0000
C  4.9700  4.9190 60.0000
C  6.3900  4.9190 60.0000
C  4.2600  6.1488 60.0000
C  7.1000  6.1488 60.0000
C  9.2300  4.9190 60.0000
C 10.6500  4.9190 60.0000
C  8.5200  6.1488 60.0000
C 11.3600  6.1488 60.0000
C 13.4900  4.9190 60.0000
C 14.9100  4.9190 60.0000
C 12.7589  6.1035 59.9685
C 15.6430  6.1012 60.0671
C 17.7621  4.8821 60.0001
C 19.1729  4.8539 59.9825
C 17.0751  6.0960 60.0876
C 19.9478  5.9886 59.9609
C 22.0100  4.9190 60.0000
C 23.4300  4.9190 60.0000
C 21.3354  6.0660 59.9353
C 24.1400  6.1488 60.0000
C 26.2700  4.9190 60.0000
C 27.6900  4.9190 60.0000
C 25.5600  6.1488 60.0000
C 28.4000  6.1488 60.0000
C 30.5300  4.9190 60.0000
C 31.9500  4.9190 60.0000
C 29.8200  6.1488 60.0000
C 32.6600  6.1488 60.0000
C  4.9700  7.3785 60.0000
C  6.3900  7.3785 60.0000
C  4.2600  8.6083 60.0000
C  7.1000  8.6083 60.0000
C  9.2300  7.3785 60.0000
C 10.6500  7.3785 60.0000
C  8.5200  8.6083 60.0000
C 11.3134  8.5789 59.9525
C 13.4472  7.2857 59.9359
C 14.8601  7.2522 60.0508
C 12.6800  8.4725 59.8977
C 15.3136  8.4580 60.4018
C 17.9806  7.1568 60.3123
C 19.3114  7.1316 60.1604
C 22.0596  7.2556 59.9045
C 23.4300  7.3785 60.0000
C 24.1400  8.6083 60.0000
C 26.2700  7.3785 60.0000
C 27.6900  7.3785 60.0000
C 25.5600  8.6083 60.0000
C 28.4000  8.6083 60.0000
C 30.5300  7.3785 60.0000
C 31.9500  7.3785 60.0000
C 29.8200  8.6083 60.0000
C 32.6600  8.6083 60.0000
C  4.9700  9.8380 60.0000
C  6.3900  9.8380 60.0000
C  4.2600 11.0678 60.0000
C  7.1000 11.0678 60.0000
C  9.2300  9.8380 60.0000
C 10.6500  9.8380 60.0000
C  8.5200 11.0678 60.0000
C 11.2598 11.0418 59.9608
C 13.2433  9.6783 59.9750
C 14.4828  9.5170 60.3940
C 12.5616 10.8826 60.0039
C 23.4667  9.6980 60.1357
C 24.1505 10.8343 60.2564
C 26.2700  9.8380 60.0000
C 27.6900  9.8380 60.0000
C 25.5483 11.0532 60.0372
C 28.4000 11.0678 60.0000
C 30.5300  9.8380 60.0000
C 31.9500  9.8380 60.0000
C 29.8200 11.0678 60.0000
C 32.6600 11.0678 60.0000
C  4.9700 12.2976 60.0000
C  6.3900 12.2976 60.0000
C  4.2600 13.5273 60.0000
C  7.1000 13.5273 60.0000
C  9.2300 12.2976 60.0000
C 10.6500 12.2976 60.0000
C  8.5200 13.5273 60.0000
C 11.2835 13.5255 60.0440
C 12.5240 13.2813 60.4813
C 24.3900 13.7605 60.4186
C 26.2700 12.2976 60.0000
C 27.6900 12.2976 60.0000
C 25.6368 13.5232 60.0055
C 28.4000 13.5273 60.0000
C 30.5300 12.2976 60.0000
C 31.9500 12.2976 60.0000
C 29.8200 13.5273 60.0000
C 32.6600 13.5273 60.0000
C  4.9700 14.7571 60.0000
C  6.3900 14.7571 60.0000
C  4.2600 15.9868 60.0000
C  7.1000 15.9868 60.0000
C  9.2300 14.7571 60.0000
C 10.6500 14.7571 60.0000
C  8.5200 15.9868 60.0000
C 11.3596 16.0020 60.0602
C 12.7369 16.2426 60.3262
C 24.2934 16.1597 60.0693
C 26.2700 14.7571 60.0000
C 27.6900 14.7571 60.0000
C 25.5600 15.9868 60.0000
C 28.4000 15.9868 60.0000
C 30.5300 14.7571 60.0000
C 31.9500 14.7571 60.0000
C 29.8200 15.9868 60.0000
C 32.6600 15.9868 60.0000
C  4.9700 17.2166 60.0000
C  6.3900 17.2166 60.0000
C  4.2600 18.4463 60.0000
C  7.1000 18.4463 60.0000
C  9.2300 17.2166 60.0000
C 10.6500 17.2166 60.0000
C  8.5200 18.4463 60.0000
C 11.3600 18.4463 60.0000
C 13.3920 17.4060 60.1987
C 12.7273 18.5269 60.0083
C 23.6657 17.3781 60.0627
C 21.6708 18.6345 60.4693
C 24.2183 18.5771 59.9534
C 26.2700 17.2166 60.0000
C 27.6900 17.2166 60.0000
C 25.5600 18.4463 60.0000
C 28.4000 18.4463 60.0000
C 30.5300 17.2166 60.0000
C 31.9500 17.2166 60.0000
C 29.8200 18.4463 60.0000
C 32.6600 18.4463 60.0000
C  4.9700 19.6761 60.0000
C  6.3900 19.6761 60.0000
C  4.2600 20.9059 60.0000
C  7.1000 20.9059 60.0000
C  9.2300 19.6761 60.0000
C 10.6500 19.6761 60.0000
C  8.5200 20.9059 60.0000
C 11.3600 20.9059 60.0000
C 13.4900 19.6761 60.0000
C 14.8654 19.7521 59.9461
C 12.7800 20.9059 60.0000
C 15.6200 20.9059 60.0000
C 17.6271 19.8624 60.1875
C 18.9628 19.8723 60.3212
C 16.9931 20.9960 60.0065
C 19.8628 20.9344 60.0912
C 22.0980 19.8246 60.0583
C 23.4895 19.7816 59.9572
C 21.2912 20.9507 60.0656
C 24.1664 20.9663 59.9667
C 26.2700 19.6761 60.0000
C 27.6900 19.6761 60.0000
C 25.5600 20.9059 60.0000
C 28.4000 20.9059 60.0000
C 30.5300 19.6761 60.0000
C 31.9500 19.6761 60.0000
C 29.8200 20.9059 60.0000
C 32.6600 20.9059 60.0000
C  4.9700 22.1356 60.0000
C  6.3900 22.1356 60.0000
C  4.2600 23.3654 60.0000
C  7.1000 23.3654 60.0000
C  9.2300 22.1356 60.0000
C 10.6500 22.1356 60.0000
C  8.5200 23.3654 60.0000
C 11.3600 23.3654 60.0000
C 13.4900 22.1356 60.0000
C 14.9100 22.1356 60.0000
C 12.7800 23.3654 60.0000
C 15.6200 23.3654 60.0000
C 17.7500 22.1356 60.0000
C 19.1700 22.1356 60.0000
C 17.0400 23.3654 60.0000
C 19.8800 23.3654 60.0000
C 22.0100 22.1356 60.0000
C 23.4305 22.1568 59.9860
C 21.3000 23.3654 60.0000
C 24.1400 23.3654 60.0000
C 26.2700 22.1356 60.0000
C 27.6900 22.1356 60.0000
C 25.5600 23.3654 60.0000
C 28.4000 23.3654 60.0000
C 30.5300 22.1356 60.0000
C 31.9500 22.1356 60.0000
C 29.8200 23.3654 60.0000
C 32.6600 23.3654 60.0000
C  4.9700 24.5951 60.0000
C  6.3900 24.5951 60.0000
C  4.2600 25.8249 60.0000
C  7.1000 25.8249 60.0000
C  9.2300 24.5951 60.0000
C 10.6500 24.5951 60.0000
C  8.5200 25.8249 60.0000
C 11.3600 25.8249 60.0000
C 13.4900 24.5951 60.0000
C 14.9100 24.5951 60.0000
C 12.7800 25.8249 60.0000
C 15.6200 25.8249 60.0000
C 17.7500 24.5951 60.0000
C 19.1700 24.5951 60.0000
C 17.0400 25.8249 60.0000
C 19.8800 25.8249 60.0000
C 22.0100 24.5951 60.0000
C 23.4300 24.5951 60.0000
C 21.3000 25.8249 60.0000
C 24.1400 25.8249 60.0000
C 26.2700 24.5951 60.0000
C 27.6900 24.5951 60.0000
C 25.5600 25.8249 60.0000
C 28.4000 25.8249 60.0000
C 30.5300 24.5951 60.0000
C 31.9500 24.5951 60.0000
C 29.8200 25.8249 60.0000
C 32.6600 25.8249 60.0000
C  4.9700 27.0546 60.0000
C  6.3900 27.0546 60.0000
C  4.2000 28.3883 60.0000
C  7.1000 28.2844 60.0000
C  9.2300 27.0546 60.0000
C 10.6500 27.0546 60.0000
C  8.5200 28.2844 60.0000
C 11.3600 28.2844 60.0000
C 13.4900 27.0546 60.0000
C 14.9100 27.0546 60.0000
C 12.7800 28.2844 60.0000
C 15.6200 28.2844 60.0000
C 17.7500 27.0546 60.0000
C 19.1700 27.0546 60.0000
C 17.0400 28.2844 60.0000
C 19.8800 28.2844 60.0000
C 22.0100 27.0546 60.0000
C 23.4300 27.0546 60.0000
C 21.3000 28.2844 60.0000
C 24.1400 28.2844 60.0000
C 26.2700 27.0546 60.0000
C 27.6900 27.0546 60.0000
C 25.5600 28.2844 60.0000
C 28.4000 28.2844 60.0000
C 30.5300 27.0546 60.0000
C 31.9500 27.0546 60.0000
C 29.8200 28.2844 60.0000
C 32.7200 28.3883 60.0000
C  4.9700  0.0000 75.9643
C  6.3900  0.0000 75.9643
C  4.2600  1.2298 75.9643
C  7.1000  1.2298 75.9643
C  9.2300  0.0000 75.9643
C 10.6500  0.0000 75.9643
C  8.5200  1.2298 75.9643
C 11.3600  1.2298 75.9643
C 13.4900  0.0000 75.9643
C 14.9100  0.0000 75.9643
C 12.7800  1.2298 75.9643
C 15.6200  1.2298 75.9643
C 17.7500  0.0000 75.9643
C 19.1700  0.0000 75.9643
C 17.0400  1.2298 75.9643
C 19.8800  1.2298 75.9643
C 22.0100  0.0000 75.9643
C 23.4300  0.0000 75.9643
C 21.3000  1.2298 75.9643
C 24.1400  1.2298 75.9643
C 26.2700  0.0000 75.9643
C 27.6900  0.0000 75.9643
C 25.5600  1.2298 75.9643
C 28.4000  1.2298 75.9643
C 30.5300  0.0000 75.9643
C 31.9500  0.0000 75.9643
C 29.8200  1.2298 75.9643
C 32.6600  1.2298 75.9643
C  4.9700  2.4595 75.9643
C  6.3900  2.4595 75.9643
C  4.2600  3.6893 75.9643
C  7.1000  3.6893 75.9643
C  9.2300  2.4595 75.9643
C 10.6500  2.4595 75.9643
C  8.5200  3.6893 75.9643
C 11.3600  3.6893 75.9643
C 13.4900  2.4595 75.9643
C 14.9100  2.4595 75.9643
C 12.7800  3.6893 75.9643
C 15.6200  3.6893 75.9643
C 17.7500  2.4595 75.9643
C 19.1700  2.4595 75.9643
C 17.0400  3.6893 75.9643
C 19.8800  3.6893 75.9643
C 22.0100  2.4595 75.9643
C 23.4300  2.4595 75.9643
C 21.3000  3.6893 75.9643
C 24.1400  3.6893 75.9643
C 26.2700  2.4595 75.9643
C 27.6900  2.4595 75.9643
C 25.5600  3.6893 75.9643
C 28.4000  3.6893 75.9643
C 30.5300  2.4595 75.9643
C 31.9500  2.4595 75.9643
C 29.8200  3.6893 75.9643
C 32.6600  3.6893 75.9643
C  4.9700  4.9190 75.9643
C  6.3900  4.9190 75.9643
C  4.2600  6.1488 75.9643
C  7.1000  6.1488 75.9643
C  9.2300  4.9190 75.9643
C 10.6500  4.9190 75.9643
C  8.5200  6.1488 75.9643
C 11.3600  6.1488 75.9643
C 13.4900  4.9190 75.9643
C 14.9100  4.9190 75.9643
C 12.7800  6.1488 75.9643
C 15.6468  6.0662 75.9283
C 17.7680  4.8602 75.9773
C 19.1700  4.9190 75.9643
C 17.0617  6.0099 75.9431
C 19.9540  6.0392 75.9719
C 22.0100  4.9190 75.9643
C 23.4300  4.9190 75.9643
C 21.3361  6.0787 75.9771
C 24.1400  6.1488 75.9643
C 26.2700  4.9190 75.9643
C 27.6900  4.9190 75.9643
C 25.5600  6.1488 75.9643
C 28.4000  6.1488 75.9643
C 30.5300  4.9190 75.9643
C 31.9500  4.9190 75.9643
C 29.8200  6.1488 75.9643
C 32.6600  6.1488 75.9643
C  4.9700  7.3785 75.9643
C  6.3900  7.3785 75.9643
C  4.2600  8.6083 75.9643
C  7.1000  8.6083 75.9643
C  9.2300  7.3785 75.9643
C 10.6500  7.3785 75.9643
C  8.5200  8.6083 75.9643
C 11.3600  8.6083 75.9643
C 13.5063  7.3294 75.8434
C 14.9304  7.2370 75.7769
C 12.7577  8.5236 75.8082
C 15.8555  8.1162 75.2840
C 19.2749  7.1545 75.8123
C 17.2115  8.0430 75.2765
C 22.0631  7.2517 75.9541
C 23.4300  7.3785 75.9643
C 21.4033  8.3640 75.6927
C 24.1400  8.6083 75.9643
C 26.2700  7.3785 75.9643
C 27.6900  7.3785 75.9643
C 25.5600  8.6083 75.9643
C 28.4000  8.6083 75.9643
C 30.5300  7.3785 75.9643
C 31.9500  7.3785 75.9643
C 29.8200  8.6083 75.9643
C 32.6600  8.6083 75.9643
C  4.9700  9.8380 75.9643
C  6.3900  9.8380 75.9643
C  4.2600 11.0678 75.9643
C  7.1000 11.0678 75.9643
C  9.2300  9.8380 75.9643
C 10.6500  9.8380 75.9643
C  8.5200 11.0678 75.9643
C 11.3600 11.0678 75.9643
C 13.2290  9.7160 75.3434
C 12.5901 10.9207 75.4139
C 22.1529  9.4913 75.5628
C 23.4804  9.7032 75.8734
C 24.2238 10.8520 75.8750
C 26.2700  9.8380 75.9643
C 27.6900  9.8380 75.9643
C 25.5600 11.0678 75.9643
C 28.4000 11.0678 75.9643
C 30.5300  9.8380 75.9643
C 31.9500  9.8380 75.9643
C 29.8200 11.0678 75.9643
C 32.6600 11.0678 75.9643
C  4.9700 12.2976 75.9643
C  6.3900 12.2976 75.9643
C  4.2600 13.5273 75.9643
C  7.1000 13.5273 75.9643
C  9.2300 12.2976 75.9643
C 10.6500 12.2976 75.9643
C  8.5200 13.5273 75.9643
C 11.3600 13.5273 75.9643
C 12.6144 13.9819 75.5824
C 24.3084 13.1123 75.5541
C 26.2700 12.2976 75.9643
C 27.6900 12.2976 75.9643
C 25.5600 13.5273 75.9643
C 28.4000 13.5273 75.9643
C 30.5300 12.2976 75.9643
C 31.9500 12.2976 75.9643
C 29.8200 13.5273 75.9643
C 32.6600 13.5273 75.9643
C  4.9700 14.7571 75.9643
C  6.3900 14.7571 75.9643
C  4.2600 15.9868 75.9643
C  7.1000 15.9868 75.9643
C  9.2300 14.7571 75.9643
C 10.6500 14.7571 75.9643
C  8.5200 15.9868 75.9643
C 11.3600 15.9868 75.9643
C 12.6675 16.2808 76.0167
C 24.2656 16.1307 75.6428
C 26.2700 14.7571 75.9643
C 27.6900 14.7571 75.9643
C 25.5600 15.9868 75.9643
C 28.4000 15.9868 75.9643
C 30.5300 14.7571 75.9643
C 31.9500 14.7571 75.9643
C 29.8200 15.9868 75.9643
C 32.6600 15.9868 75.9643
C  4.9700 17.2166 75.9643
C  6.3900 17.2166 75.9643
C  4.2600 18.4463 75.9643
C  7.1000 18.4463 75.9643
C  9.2300 17.2166 75.9643
C 10.6500 17.2166 75.9643
C  8.5200 18.4463 75.9643
C 11.3600 18.4463 75.9643
C 13.3896 17.4611 76.1065
C 14.7557 17.5989 75.9393
C 12.7227 18.5951 76.0735
C 15.4705 18.7406 76.0507
C 16.7955 18.8759 75.9105
C 22.5065 17.5778 75.6276
C 23.7411 17.3744 75.8115
C 21.7018 18.5987 75.9459
C 24.2956 18.5725 76.0672
C 26.2700 17.2166 75.9643
C 27.6900 17.2166 75.9643
C 25.6357 18.4722 75.9976
C 28.4000 18.4463 75.9643
C 30.5300 17.2166 75.9643
C 31.9500 17.2166 75.9643
C 29.8200 18.4463 75.9643
C 32.6600 18.4463 75.9643
C  4.9700 19.6761 75.9643
C  6.3900 19.6761 75.9643
C  4.2600 20.9059 75.9643
C  7.1000 20.9059 75.9643
C  9.2300 19.6761 75.9643
C 10.6500 19.6761 75.9643
C  8.5200 20.9059 75.9643
C 11.3600 20.9059 75.9643
C 13.4538 19.7736 76.0544
C 14.8197 19.8746 76.1106
C 12.7800 20.9059 75.9643
C 15.5762 21.0254 76.0899
C 17.5893 19.9761 76.1432
C 16.9531 21.1244 76.1756
C 19.8613 21.0300 76.2000
C 22.1425 19.8259 76.1982
C 23.5356 19.7787 76.1463
C 21.3053 20.9725 76.1716
C 24.1789 20.9726 76.0629
C 26.2700 19.6761 75.9643
C 27.6900 19.6761 75.9643
C 25.5600 20.9059 75.9643
C 28.4000 20.9059 75.9643
C 30.5300 19.6761 75.9643
C 31.9500 19.6761 75.9643
C 29.8200 20.9059 75.9643
C 32.6600 20.9059 75.9643
C  4.9700 22.1356 75.9643
C  6.3900 22.1356 75.9643
C  4.2600 23.3654 75.9643
C  7.1000 23.3654 75.9643
C  9.2300 22.1356 75.9643
C 10.6500 22.1356 75.9643
C  8.5200 23.3654 75.9643
C 11.3600 23.3654 75.9643
C 13.4900 22.1356 75.9643
C 14.9100 22.1356 75.9643
C 12.7800 23.3654 75.9643
C 15.6200 23.3654 75.9643
C 17.7381 22.2671 76.1337
C 19.1601 22.2376 76.1480
C 17.0294 23.4365 76.0275
C 19.8889 23.4134 76.0283
C 22.0196 22.1679 76.0600
C 23.4371 22.1647 76.0307
C 21.3025 23.3656 75.9545
C 24.1400 23.3654 75.9643
C 26.2700 22.1356 75.9643
C 27.6900 22.1356 75.9643
C 25.5600 23.3654 75.9643
C 28.4000 23.3654 75.9643
C 30.5300 22.1356 75.9643
C 31.9500 22.1356 75.9643
C 29.8200 23.3654 75.9643
C 32.6600 23.3654 75.9643
C  4.9700 24.5951 75.9643
C  6.3900 24.5951 75.9643
C  4.2600 25.8249 75.9643
C  7.1000 25.8249 75.9643
C  9.2300 24.5951 75.9643
C 10.6500 24.5951 75.9643
C  8.5200 25.8249 75.9643
C 11.3600 25.8249 75.9643
C 13.4900 24.5951 75.9643
C 14.9100 24.5951 75.9643
C 12.7800 25.8249 75.9643
C 15.6200 25.8249 75.9643
C 17.7539 24.6291 75.9967
C 19.1704 24.6208 75.9933
C 17.0400 25.8249 75.9643
C 19.8800 25.8249 75.9643
C 22.0121 24.5948 75.9433
C 23.4312 24.5952 75.9531
C 21.3000 25.8249 75.9643
C 24.1400 25.8249 75.9643
C 26.2700 24.5951 75.9643
C 27.6900 24.5951 75.9643
C 25.5600 25.8249 75.9643
C 28.4000 25.8249 75.9643
C 30.5300 24.5951 75.9643
C 31.9500 24.5951 75.9643
C 29.8200 25.8249 75.9643
C 32.6600 25.8249 75.9643
C  4.9700 27.0546 75.9643
C  6.3900 27.0546 75.9643
C  4.2000 28.3883 75.9643
C  7.1000 28.2844 75.9643
C  9.2300 27.0546 75.9643
C 10.6500 27.0546 75.9643
C  8.5200 28.2844 75.9643
C 11.3600 28.2844 75.9643
C 13.4900 27.0546 75.9643
C 14.9100 27.0546 75.9643
C 12.7800 28.2844 75.9643
C 15.6200 28.2844 75.9643
C 17.7500 27.0546 75.9643
C 19.1700 27.0546 75.9643
C 17.0400 28.2844 75.9643
C 19.8800 28.2844 75.9643
C 22.0100 27.0546 75.9643
C 23.4300 27.0546 75.9643
C 21.3000 28.2844 75.9643
C 24.1400 28.2844 75.9643
C 26.2700 27.0546 75.9643
C 27.6900 27.0546 75.9643
C 25.5600 28.2844 75.9643
C 28.4000 28.2844 75.9643
C 30.5300 27.0546 75.9643
C 31.9500 27.0546 75.9643
C 29.8200 28.2844 75.9643
C 32.7200 28.3883 75.9643
C 15.5202 18.6081 59.9537
C 22.1358  9.4620 60.2352
C 21.3875  8.4022 59.9101
C 17.8958  7.0742 75.7775
C 13.1995 15.2468 75.5866
C 23.6820 11.9183 75.4881
C  4.9700  0.0000  0.0000
C  6.3900  0.0000  0.0000
C  4.2600  1.2298  0.0000
C  7.1000  1.2298  0.0000
C  9.2300  0.0000  0.0000
C 10.6500  0.0000  0.0000
C  8.5200  1.2298  0.0000
C 11.3600  1.2298  0.0000
C 13.4900  0.0000  0.0000
C 14.9100  0.0000  0.0000
C 12.7800  1.2298  0.0000
C 15.6200  1.2298  0.0000
C 17.7500  0.0000  0.0000
C 19.1700  0.0000  0.0000
C 17.0400  1.2298  0.0000
C 19.8800  1.2298  0.0000
C 22.0100  0.0000  0.0000
C 23.4300  0.0000  0.0000
C 21.3000  1.2298  0.0000
C 24.1400  1.2298  0.0000
C 26.2700  0.0000  0.0000
C 27.6900  0.0000  0.0000
C 25.5600  1.2298  0.0000
C 28.4000  1.2298  0.0000
C 30.5300  0.0000  0.0000
C 31.9500  0.0000  0.0000
C 29.8200  1.2298  0.0000
C 32.6600  1.2298  0.0000
C  4.9700  2.4595  0.0000
C  6.3900  2.4595  0.0000
C  4.2600  3.6893  0.0000
C  7.1000  3.6893  0.0000
C  9.2300  2.4595  0.0000
C 10.6500  2.4595  0.0000
C  8.5200  3.6893  0.0000
C 11.3600  3.6893  0.0000
C 13.4900  2.4595  0.0000
C 14.9100  2.4595  0.0000
C 12.7800  3.6893  0.0000
C 15.6200  3.6893  0.0000
C 17.7500  2.4595  0.0000
C 19.1700  2.4595  0.0000
C 17.0400  3.6893  0.0000
C 19.8800  3.6893  0.0000
C 22.0100  2.4595  0.0000
C 23.4300  2.4595  0.0000
C 21.3000  3.6893  0.0000
C 24.1400  3.6893  0.0000
C 26.2700  2.4595  0.0000
C 27.6900  2.4595  0.0000
C 25.5600  3.6893  0.0000
C 28.4000  3.6893  0.0000
C 30.5300  2.4595  0.0000
C 31.9500  2.4595  0.0000
C 29.8200  3.6893  0.0000
C 32.6600  3.6893  0.0000
C  4.9700  4.9190  0.0000
C  6.3900  4.9190  0.0000
C  4.2600  6.1488  0.0000
C  7.1000  6.1488  0.0000
C  9.2300  4.9190  0.0000
C 10.6500  4.9190  0.0000
C  8.5200  6.1488  0.0000
C 11.3600  6.1488  0.0000
C 13.4900  4.9190  0.0000
C 14.9100  4.9190  0.0000
C 12.7800  6.1488  0.0000
C 15.6200  6.1488  0.0000
C 17.7500  4.9190  0.0000
C 19.1700  4.9190  0.0000
C 17.0400  6.1488  0.0000
C 19.8800  6.1488  0.0000
C 22.0100  4.9190  0.0000
C 23.4300  4.9190  0.0000
C 21.3000  6.1488  0.0000
C 24.1400  6.1488  0.0000
C 26.2700  4.9190  0.0000
C 27.6900  4.9190  0.0000
C 25.5600  6.1488  0.0000
C 28.4000  6.1488  0.0000
C 30.5300  4.9190  0.0000
C 31.9500  4.9190  0.0000
C 29.8200  6.1488  0.0000
C 32.6600  6.1488  0.0000
C  4.9700  7.3785  0.0000
C  6.3900  7.3785  0.0000
C  4.2600  8.6083  0.0000
C  7.1000  8.6083  0.0000
C  9.2300  7.3785  0.0000
C 10.6500  7.3785  0.0000
C  8.5200  8.6083  0.0000
C 11.3600  8.6083  0.0000
C 13.4900  7.3785  0.0000
C 14.9100  7.3785  0.0000
C 12.7800  8.6083  0.0000
C 15.6200  8.6083  0.0000
C 17.7500  7.3785  0.0000
C 19.1700  7.3785  0.0000
C 17.0400  8.6083  0.0000
C 19.8800  8.6083  0.0000
C 22.0100  7.3785  0.0000
C 23.4300  7.3785  0.0000
C 21.3000  8.6083  0.0000
C 24.1400  8.6083  0.0000
C 26.2700  7.3785  0.0000
C 27.6900  7.3785  0.0000
C 25.5600  8.6083  0.0000
C 28.4000  8.6083  0.0000
C 30.5300  7.3785  0.0000
C 31.9500  7.3785  0.0000
C 29.8200  8.6083  0.0000
C 32.6600  8.6083  0.0000
C  4.9700  9.8380  0.0000
C  6.3900  9.8380  0.0000
C  4.2600 11.0678  0.0000
C  7.1000 11.0678  0.0000
C  9.2300  9.8380  0.0000
C 10.6500  9.8380  0.0000
C  8.5200 11.0678  0.0000
C 11.3600 11.0678  0.0000
C 13.4900  9.8380  0.0000
C 14.9100  9.8380  0.0000
C 12.7800 11.0678  0.0000
C 15.6200 11.0678  0.0000
C 17.7500  9.8380  0.0000
C 19.1700  9.8380  0.0000
C 17.0400 11.0678  0.0000
C 19.8800 11.0678  0.0000
C 22.0100  9.8380  0.0000
C 23.4300  9.8380  0.0000
C 21.3000 11.0678  0.0000
C 24.1400 11.0678  0.0000
C 26.2700  9.8380  0.0000
C 27.6900  9.8380  0.0000
C 25.5600 11.0678  0.0000
C 28.4000 11.0678  0.0000
C 30.5300  9.8380  0.0000
C 31.9500  9.8380  0.0000
C 29.8200 11.0678  0.0000
C 32.6600 11.0678  0.0000
C  4.9700 12.2976  0.0000
C  6.3900 12.2976  0.0000
C  4.2600 13.5273  0.0000
C  7.1000 13.5273  0.0000
C  9.2300 12.2976  0.0000
C 10.6500 12.2976  0.0000
C  8.5200 13.5273  0.0000
C 11.3600 13.5273  0.0000
C 13.4900 12.2976  0.0000
C 14.9100 12.2976  0.0000
C 12.7800 13.5273  0.0000
C 15.6200 13.5273  0.0000
C 17.7500 12.2976  0.0000
C 19.1700 12.2976  0.0000
C 17.0400 13.5273  0.0000
C 19.8800 13.5273  0.0000
C 22.0100 12.2976  0.0000
C 23.4300 12.2976  0.0000
C 21.3000 13.5273  0.0000
C 24.1400 13.5273  0.0000
C 26.2700 12.2976  0.0000
C 27.6900 12.2976  0.0000
C 25.5600 13.5273  0.0000
C 28.4000 13.5273  0.0000
C 30.5300 12.2976  0.0000
C 31.9500 12.2976  0.0000
C 29.8200 13.5273  0.0000
C 32.6600 13.5273  0.0000
C  4.9700 14.7571  0.0000
C  6.3900 14.7571  0.0000
C  4.2600 15.9868  0.0000
C  7.1000 15.9868  0.0000
C  9.2300 14.7571  0.0000
C 10.6500 14.7571  0.0000
C  8.5200 15.9868  0.0000
C 11.3600 15.9868  0.0000
C 13.4900 14.7571  0.0000
C 14.9100 14.7571  0.0000
C 12.7800 15.9868  0.0000
C 15.6200 15.9868  0.0000
C 17.7500 14.7571  0.0000
C 19.1700 14.7571  0.0000
C 17.0400 15.9868  0.0000
C 19.8800 15.9868  0.0000
C 22.0100 14.7571  0.0000
C 23.4300 14.7571  0.0000
C 21.3000 15.9868  0.0000
C 24.1400 15.9868  0.0000
C 26.2700 14.7571  0.0000
C 27.6900 14.7571  0.0000
C 25.5600 15.9868  0.0000
C 28.4000 15.9868  0.0000
C 30.5300 14.7571  0.0000
C 31.9500 14.7571  0.0000
C 29.8200 15.9868  0.0000
C 32.6600 15.9868  0.0000
C  4.9700 17.2166  0.0000
C  6.3900 17.2166  0.0000
C  4.2600 18.4463  0.0000
C  7.1000 18.4463  0.0000
C  9.2300 17.2166  0.0000
C 10.6500 17.2166  0.0000
C  8.5200 18.4463  0.0000
C 11.3600 18.4463  0.0000
C 13.4900 17.2166  0.0000
C 14.9100 17.2166  0.0000
C 12.7800 18.4463  0.0000
C 15.6200 18.4463  0.0000
C 17.7500 17.2166  0.0000
C 19.1700 17.2166  0.0000
C 17.0400 18.4463  0.0000
C 19.8800 18.4463  0.0000
C 22.0100 17.2166  0.0000
C 23.4300 17.2166  0.0000
C 21.3000 18.4463  0.0000
C 24.1400 18.4463  0.0000
C 26.2700 17.2166  0.0000
C 27.6900 17.2166  0.0000
C 25.5600 18.4463  0.0000
C 28.4000 18.4463  0.0000
C 30.5300 17.2166  0.0000
C 31.9500 17.2166  0.0000
C 29.8200 18.4463  0.0000
C 32.6600 18.4463  0.0000
C  4.9700 19.6761  0.0000
C  6.3900 19.6761  0.0000
C  4.2600 20.9059  0.0000
C  7.1000 20.9059  0.0000
C  9.2300 19.6761  0.0000
C 10.6500 19.6761  0.0000
C  8.5200 20.9059  0.0000
C 11.3600 20.9059  0.0000
C 13.4900 19.6761  0.0000
C 14.9100 19.6761  0.0000
C 12.7800 20.9059  0.0000
C 15.6200 20.9059  0.0000
C 17.7500 19.6761  0.0000
C 19.1700 19.6761  0.0000
C 17.0400 20.9059  0.0000
C 19.8800 20.9059  0.0000
C 22.0100 19.6761  0.0000
C 23.4300 19.6761  0.0000
C 21.3000 20.9059  0.0000
C 24.1400 20.9059  0.0000
C 26.2700 19.6761  0.0000
C 27.6900 19.6761  0.0000
C 25.5600 20.9059  0.0000
C 28.4000 20.9059  0.0000
C 30.5300 19.6761  0.0000
C 31.9500 19.6761  0.0000
C 29.8200 20.9059  0.0000
C 32.6600 20.9059  0.0000
C  4.9700 22.1356  0.0000
C  6.3900 22.1356  0.0000
C  4.2600 23.3654  0.0000
C  7.1000 23.3654  0.0000
C  9.2300 22.1356  0.0000
C 10.6500 22.1356  0.0000
C  8.5200 23.3654  0.0000
C 11.3600 23.3654  0.0000
C 13.4900 22.1356  0.0000
C 14.9100 22.1356  0.0000
C 12.7800 23.3654  0.0000
C 15.6200 23.3654  0.0000
C 17.7500 22.1356  0.0000
C 19.1700 22.1356  0.0000
C 17.0400 23.3654  0.0000
C 19.8800 23.3654  0.0000
C 22.0100 22.1356  0.0000
C 23.4300 22.1356  0.0000
C 21.3000 23.3654  0.0000
C 24.1400 23.3654  0.0000
C 26.2700 22.1356  0.0000
C 27.6900 22.1356  0.0000
C 25.5600 23.3654  0.0000
C 28.4000 23.3654  0.0000
C 30.5300 22.1356  0.0000
C 31.9500 22.1356  0.0000
C 29.8200 23.3654  0.0000
C 32.6600 23.3654  0.0000
C  4.9700 24.5951  0.0000
C  6.3900 24.5951  0.0000
C  4.2600 25.8249  0.0000
C  7.1000 25.8249  0.0000
C  9.2300 24.5951  0.0000
C 10.6500 24.5951  0.0000
C  8.5200 25.8249  0.0000
C 11.3600 25.8249  0.0000
C 13.4900 24.5951  0.0000
C 14.9100 24.5951  0.0000
C 12.7800 25.8249  0.0000
C 15.6200 25.8249  0.0000
C 17.7500 24.5951  0.0000
C 19.1700 24.5951  0.0000
C 17.0400 25.8249  0.0000
C 19.8800 25.8249  0.0000
C 22.0100 24.5951  0.0000
C 23.4300 24.5951  0.0000
C 21.3000 25.8249  0.0000
C 24.1400 25.8249  0.0000
C 26.2700 24.5951  0.0000
C 27.6900 24.5951  0.0000
C 25.5600 25.8249  0.0000
C 28.4000 25.8249  0.0000
C 30.5300 24.5951  0.0000
C 31.9500 24.5951  0.0000
C 29.8200 25.8249  0.0000
C 32.6600 25.8249  0.0000
C  4.9700 27.0546  0.0000
C  6.3900 27.0546  0.0000
C  4.2000 28.3883  0.0000
C  7.1000 28.2844  0.0000
C  9.2300 27.0546  0.0000
C 10.6500 27.0546  0.0000
C  8.5200 28.2844  0.0000
C 11.3600 28.2844  0.0000
C 13.4900 27.0546  0.0000
C 14.9100 27.0546  0.0000
C 12.7800 28.2844  0.0000
C 15.6200 28.2844  0.0000
C 17.7500 27.0546  0.0000
C 19.1700 27.0546  0.0000
C 17.0400 28.2844  0.0000
C 19.8800 28.2844  0.0000
C 22.0100 27.0546  0.0000
C 23.4300 27.0546  0.0000
C 21.3000 28.2844  0.0000
C 24.1400 28.2844  0.0000
C 26.2700 27.0546  0.0000
C 27.6900 27.0546  0.0000
C 25.5600 28.2844  0.0000
C 28.4000 28.2844  0.0000
C 30.5300 27.0546  0.0000
C 31.9500 27.0546  0.0000
C 29.8200 28.2844  0.0000
C 32.7200 28.3883  0.0000
C  4.9700  0.0000 130.0000
C  6.3900  0.0000 130.0000
C  4.2600  1.2298 130.0000
C  7.1000  1.2298 130.0000
C  9.2300  0.0000 130.0000
C 10.6500  0.0000 130.0000
C  8.5200  1.2298 130.0000
C 11.3600  1.2298 130.0000
C 13.4900  0.0000 130.0000
C 14.9100  0.0000 130.0000
C 12.7800  1.2298 130.0000
C 15.6200  1.2298 130.0000
C 17.7500  0.0000 130.0000
C 19.1700  0.0000 130.0000
C 17.0400  1.2298 130.0000
C 19.8800  1.2298 130.0000
C 22.0100  0.0000 130.0000
C 23.4300  0.0000 130.0000
C 21.3000  1.2298 130.0000
C 24.1400  1.2298 130.0000
C 26.2700  0.0000 130.0000
C 27.6900  0.0000 130.0000
C 25.5600  1.2298 130.0000
C 28.4000  1.2298 130.0000
C 30.5300  0.0000 130.0000
C 31.9500  0.0000 130.0000
C 29.8200  1.2298 130.0000
C 32.6600  1.2298 130.0000
C  4.9700  2.4595 130.0000
C  6.3900  2.4595 130.0000
C  4.2600  3.6893 130.0000
C  7.1000  3.6893 130.0000
C  9.2300  2.4595 130.0000
C 10.6500  2.4595 130.0000
C  8.5200  3.6893 130.0000
C 11.3600  3.6893 130.0000
C 13.4900  2.4595 130.0000
C 14.9100  2.4595 130.0000
C 12.7800  3.6893 130.0000
C 15.6200  3.6893 130.0000
C 17.7500  2.4595 130.0000
C 19.1700  2.4595 130.0000
C 17.0400  3.6893 130.0000
C 19.8800  3.6893 130.0000
C 22.0100  2.4595 130.0000
C 23.4300  2.4595 130.0000
C 21.3000  3.6893 130.0000
C 24.1400  3.6893 130.0000
C 26.2700  2.4595 130.0000
C 27.6900  2.4595 130.0000
C 25.5600  3.6893 130.0000
C 28.4000  3.6893 130.0000
C 30.5300  2.4595 130.0000
C 31.9500  2.4595 130.0000
C 29.8200  3.6893 130.0000
C 32.6600  3.6893 130.0000
C  4.9700  4.9190 130.0000
C  6.3900  4.9190 130.0000
C  4.2600  6.1488 130.0000
C  7.1000  6.1488 130.0000
C  9.2300  4.9190 130.0000
C 10.6500  4.9190 130.0000
C  8.5200  6.1488 130.0000
C 11.3600  6.1488 130.0000
C 13.4900  4.9190 130.0000
C 14.9100  4.9190 130.0000
C 12.7800  6.1488 130.0000
C 15.6200  6.1488 130.0000
C 17.7500  4.9190 130.0000
C 19.1700  4.9190 130.0000
C 17.0400  6.1488 130.0000
C 19.8800  6.1488 130.0000
C 22.0100  4.9190 130.0000
C 23.4300  4.9190 130.0000
C 21.3000  6.1488 130.0000
C 24.1400  6.1488 130.0000
C 26.2700  4.9190 130.0000
C 27.6900  4.9190 130.0000
C 25.5600  6.1488 130.0000
C 28.4000  6.1488 130.0000
C 30.5300  4.9190 130.0000
C 31.9500  4.9190 130.0000
C 29.8200  6.1488 130.0000
C 32.6600  6.1488 130.0000
C  4.9700  7.3785 130.0000
C  6.3900  7.3785 130.0000
C  4.2600  8.6083 130.0000
C  7.1000  8.6083 130.0000
C  9.2300  7.3785 130.0000
C 10.6500  7.3785 130.0000
C  8.5200  8.6083 130.0000
C 11.3600  8.6083 130.0000
C 13.4900  7.3785 130.0000
C 14.9100  7.3785 130.0000
C 12.7800  8.6083 130.0000
C 15.6200  8.6083 130.0000
C 17.7500  7.3785 130.0000
C 19.1700  7.3785 130.0000
C 17.0400  8.6083 130.0000
C 19.8800  8.6083 130.0000
C 22.0100  7.3785 130.0000
C 23.4300  7.3785 130.0000
C 21.3000  8.6083 130.0000
C 24.1400  8.6083 130.0000
C 26.2700  7.3785 130.0000
C 27.6900  7.3785 130.0000
C 25.5600  8.6083 130.0000
C 28.4000  8.6083 130.0000
C 30.5300  7.3785 130.0000
C 31.9500  7.3785 130.0000
C 29.8200  8.6083 130.0000
C 32.6600  8.6083 130.0000
C  4.9700  9.8380 130.0000
C  6.3900  9.8380 130.0000
C  4.2600 11.0678 130.0000
C  7.1000 11.0678 130.0000
C  9.2300  9.8380 130.0000
C 10.6500  9.8380 130.0000
C  8.5200 11.0678 130.0000
C 11.3600 11.0678 130.0000
C 13.4900  9.8380 130.0000
C 14.9100  9.8380 130.0000
C 12.7800 11.0678 130.0000
C 15.6200 11.0678 130.0000
C 17.7500  9.8380 130.0000
C 19.1700  9.8380 130.0000
C 17.0400 11.0678 130.0000
C 19.8800 11.0678 130.0000
C 22.0100  9.8380 130.0000
C 23.4300  9.8380 130.0000
C 21.3000 11.0678 130.0000
C 24.1400 11.0678 130.0000
C 26.2700  9.8380 130.0000
C 27.6900  9.8380 130.0000
C 25.5600 11.0678 130.0000
C 28.4000 11.0678 130.0000
C 30.5300  9.8380 130.0000
C 31.9500  9.8380 130.0000
C 29.8200 11.0678 130.0000
C 32.6600 11.0678 130.0000
C  4.9700 12.2976 130.0000
C  6.3900 12.2976 130.0000
C  4.2600 13.5273 130.0000
C  7.1000 13.5273 130.0000
C  9.2300 12.2976 130.0000
C 10.6500 12.2976 130.0000
C  8.5200 13.5273 130.0000
C 11.3600 13.5273 130.0000
C 13.4900 12.2976 130.0000
C 14.9100 12.2976 130.0000
C 12.7800 13.5273 130.0000
C 15.6200 13.5273 130.0000
C 17.7500 12.2976 130.0000
C 19.1700 12.2976 130.0000
C 17.0400 13.5273 130.0000
C 19.8800 13.5273 130.0000
C 22.0100 12.2976 130.0000
C 23.4300 12.2976 130.0000
C 21.3000 13.5273 130.0000
C 24.1400 13.5273 130.0000
C 26.2700 12.2976 130.0000
C 27.6900 12.2976 130.0000
C 25.5600 13.5273 130.0000
C 28.4000 13.5273 130.0000
C 30.5300 12.2976 130.0000
C 31.9500 12.2976 130.0000
C 29.8200 13.5273 130.0000
C 32.6600 13.5273 130.0000
C  4.9700 14.7571 130.0000
C  6.3900 14.7571 130.0000
C  4.2600 15.9868 130.0000
C  7.1000 15.9868 130.0000
C  9.2300 14.7571 130.0000
C 10.6500 14.7571 130.0000
C  8.5200 15.9868 130.0000
C 11.3600 15.9868 130.0000
C 13.4900 14.7571 130.0000
C 14.9100 14.7571 130.0000
C 12.7800 15.9868 130.0000
C 15.6200 15.9868 130.0000
C 17.7500 14.7571 130.0000
C 19.1700 14.7571 130.0000
C 17.0400 15.9868 130.0000
C 19.8800 15.9868 130.0000
C 22.0100 14.7571 130.0000
C 23.4300 14.7571 130.0000
C 21.3000 15.9868 130.0000
C 24.1400 15.9868 130.0000
C 26.2700 14.7571 130.0000
C 27.6900 14.7571 130.0000
C 25.5600 15.9868 130.0000
C 28.4000 15.9868 130.0000
C 30.5300 14.7571 130.0000
C 31.9500 14.7571 130.0000
C 29.8200 15.9868 130.0000
C 32.6600 15.9868 130.0000
C  4.9700 17.2166 130.0000
C  6.3900 17.2166 130.0000
C  4.2600 18.4463 130.0000
C  7.1000 18.4463 130.0000
C  9.2300 17.2166 130.0000
C 10.6500 17.2166 130.0000
C  8.5200 18.4463 130.0000
C 11.3600 18.4463 130.0000
C 13.4900 17.2166 130.0000
C 14.9100 17.2166 130.0000
C 12.7800 18.4463 130.0000
C 15.6200 18.4463 130.0000
C 17.7500 17.2166 130.0000
C 19.1700 17.2166 130.0000
C 17.0400 18.4463 130.0000
C 19.8800 18.4463 130.0000
C 22.0100 17.2166 130.0000
C 23.4300 17.2166 130.0000
C 21.3000 18.4463 130.0000
C 24.1400 18.4463 130.0000
C 26.2700 17.2166 130.0000
C 27.6900 17.2166 130.0000
C 25.5600 18.4463 130.0000
C 28.4000 18.4463 130.0000
C 30.5300 17.2166 130.0000
C 31.9500 17.2166 130.0000
C 29.8200 18.4463 130.0000
C 32.6600 18.4463 130.0000
C  4.9700 19.6761 130.0000
C  6.3900 19.6761 130.0000
C  4.2600 20.9059 130.0000
C  7.1000 20.9059 130.0000
C  9.2300 19.6761 130.0000
C 10.6500 19.6761 130.0000
C  8.5200 20.9059 130.0000
C 11.3600 20.9059 130.0000
C 13.4900 19.6761 130.0000
C 14.9100 19.6761 130.0000
C 12.7800 20.9059 130.0000
C 15.6200 20.9059 130.0000
C 17.7500 19.6761 130.0000
C 19.1700 19.6761 130.0000
C 17.0400 20.9059 130.0000
C 19.8800 20.9059 130.0000
C 22.0100 19.6761 130.0000
C 23.4300 19.6761 130.0000
C 21.3000 20.9059 130.0000
C 24.1400 20.9059 130.0000
C 26.2700 19.6761 130.0000
C 27.6900 19.6761 130.0000
C 25.5600 20.9059 130.0000
C 28.4000 20.9059 130.0000
C 30.5300 19.6761 130.0000
C 31.9500 19.6761 130.0000
C 29.8200 20.9059 130.0000
C 32.6600 20.9059 130.0000
C  4.9700 22.1356 130.0000
C  6.3900 22.1356 130.0000
C  4.2600 23.3654 130.0000
C  7.1000 23.3654 130.0000
C  9.2300 22.1356 130.0000
C 10.6500 22.1356 130.0000
C  8.5200 23.3654 130.0000
C 11.3600 23.3654 130.0000
C 13.4900 22.1356 130.0000
C 14.9100 22.1356 130.0000
C 12.7800 23.3654 130.0000
C 15.6200 23.3654 130.0000
C 17.7500 22.1356 130.0000
C 19.1700 22.1356 130.0000
C 17.0400 23.3654 130.0000
C 19.8800 23.3654 130.0000
C 22.0100 22.1356 130.0000
C 23.4300 22.1356 130.0000
C 21.3000 23.3654 130.0000
C 24.1400 23.3654 130.0000
C 26.2700 22.1356 130.0000
C 27.6900 22.1356 130.0000
C 25.5600 23.3654 130.0000
C 28.4000 23.3654 130.0000
C 30.5300 22.1356 130.0000
C 31.9500 22.1356 130.0000
C 29.8200 23.3654 130.0000
C 32.6600 23.3654 130.0000
C  4.9700 24.5951 130.0000
C  6.3900 24.5951 130.0000
C  4.2600 25.8249 130.0000
C  7.1000 25.8249 130.0000
C  9.2300 24.5951 130.0000
C 10.6500 24.5951 130.0000
C  8.5200 25.8249 130.0000
C 11.3600 25.8249 130.0000
C 13.4900 24.5951 130.0000
C 14.9100 24.5951 130.0000
C 12.7800 25.8249 130.0000
C 15.6200 25.8249 130.0000
C 17.7500 24.5951 130.0000
C 19.1700 24.5951 130.0000
C 17.0400 25.8249 130.0000
C 19.8800 25.8249 130.0000
C 22.0100 24.5951 130.0000
C 23.4300 24.5951 130.0000
C 21.3000 25.8249 130.0000
C 24.1400 25.8249 130.0000
C 26.2700 24.5951 130.0000
C 27.6900 24.5951 130.0000
C 25.5600 25.8249 130.0000
C 28.4000 25.8249 130.0000
C 30.5300 24.5951 130.0000
C 31.9500 24.5951 130.0000
C 29.8200 25.8249 130.0000
C 32.6600 25.8249 130.0000
C  4.9700 27.0546 130.0000
C  6.3900 27.0546 130.0000
C  4.2000 28.3883 130.0000
C  7.1000 28.2844 130.0000
C  9.2300 27.0546 130.0000
C 10.6500 27.0546 130.0000
C  8.5200 28.2844 130.0000
C 11.3600 28.2844 130.0000
C 13.4900 27.0546 130.0000
C 14.9100 27.0546 130.0000
C 12.7800 28.2844 130.0000
C 15.6200 28.2844 130.0000
C 17.7500 27.0546 130.0000
C 19.1700 27.0546 130.0000
C 17.0400 28.2844 130.0000
C 19.8800 28.2844 130.0000
C 22.0100 27.0546 130.0000
C 23.4300 27.0546 130.0000
C 21.3000 28.2844 130.0000
C 24.1400 28.2844 130.0000
C 26.2700 27.0546 130.0000
C 27.6900 27.0546 130.0000
C 25.5600 28.2844 130.0000
C 28.4000 28.2844 130.0000
C 30.5300 27.0546 130.0000
C 31.9500 27.0546 130.0000
C 29.8200 28.2844 130.0000
C 32.7200 28.3883 130.0000
C 18.9393 19.9895 76.1007
C 19.3734 18.9452 75.4810
