420
 generated by VMD
 C        10.155677        0.000000        0.000000
 C        10.056843        1.413397        0.000000
 C         9.933751        2.111484        1.228024
 C         9.543215        3.473446        1.228024
 C         9.277673        4.130686        0.000000
 C         8.612502        5.381689        0.000000
 C         8.216115        5.969357        1.228024
 C         7.305383        7.054726        1.228024
 C         6.795474        7.547139        0.000000
 C         5.678982        8.419437        0.000000
 C         5.077838        8.795074        1.228024
 C         3.804384        9.416180        1.228024
 C         3.138277        9.658623        0.000000
 C         1.763515       10.001390        0.000000
 C         1.061557       10.100043        1.228024
 C        -0.354428       10.149490        1.228024
 C        -1.061557       10.100043        0.000000
 C        -2.456881        9.854010        0.000000
 C        -3.138277        9.658623        1.228024
 C        -4.451956        9.127862        1.228024
 C        -5.077838        8.795074        0.000000
 C        -6.252459        8.002783        0.000000
 C        -6.795474        7.547139        1.228024
 C        -7.779700        6.527943        1.228024
 C        -8.216115        5.969357        0.000000
 C        -8.966930        4.767801        0.000000
 C        -9.277673        4.130686        1.228024
 C        -9.762263        2.799284        1.228024
 C        -9.933751        2.111484        0.000000
 C       -10.130939        0.708424        0.000000
 C       -10.155677       -0.000000        1.228024
 C       -10.056843       -1.413397        1.228024
 C        -9.933751       -2.111484        0.000000
 C        -9.543215       -3.473446        0.000000
 C        -9.277673       -4.130686        1.228024
 C        -8.612502       -5.381689        1.228024
 C        -8.216115       -5.969357        0.000000
 C        -7.305383       -7.054726        0.000000
 C        -6.795474       -7.547139        1.228024
 C        -5.678982       -8.419437        1.228024
 C        -5.077838       -8.795074        0.000000
 C        -3.804384       -9.416180        0.000000
 C        -3.138277       -9.658623        1.228024
 C        -1.763515      -10.001390        1.228024
 C        -1.061557      -10.100043        0.000000
 C         0.354428      -10.149490        0.000000
 C         1.061557      -10.100043        1.228024
 C         2.456881       -9.854010        1.228024
 C         3.138277       -9.658623        0.000000
 C         4.451956       -9.127862        0.000000
 C         5.077838       -8.795074        1.228024
 C         6.252459       -8.002783        1.228024
 C         6.795474       -7.547139        0.000000
 C         7.779700       -6.527943        0.000000
 C         8.216115       -5.969357        1.228024
 C         8.966930       -4.767801        1.228024
 C         9.277673       -4.130686        0.000000
 C         9.762263       -2.799284        0.000000
 C         9.933751       -2.111484        1.228024
 C        10.130939       -0.708424        1.228024
 C        10.155677        0.000000        2.456048
 C        10.056843        1.413397        2.456048
 C         9.933751        2.111484        3.684072
 C         9.543215        3.473446        3.684072
 C         9.277673        4.130686        2.456048
 C         8.612502        5.381689        2.456048
 C         8.216115        5.969357        3.684072
 C         7.305383        7.054726        3.684072
 C         6.795474        7.547139        2.456048
 C         5.678982        8.419437        2.456048
 C         5.077838        8.795074        3.684072
 C         3.804384        9.416180        3.684072
 C         3.138277        9.658623        2.456048
 C         1.763515       10.001390        2.456048
 C         1.061557       10.100043        3.684072
 C        -0.354428       10.149490        3.684072
 C        -1.061557       10.100043        2.456048
 C        -2.456881        9.854010        2.456048
 C        -3.138277        9.658623        3.684072
 C        -4.451956        9.127862        3.684072
 C        -5.077838        8.795074        2.456048
 C        -6.252459        8.002783        2.456048
 C        -6.795474        7.547139        3.684072
 C        -7.779700        6.527943        3.684072
 C        -8.216115        5.969357        2.456048
 C        -8.966930        4.767801        2.456048
 C        -9.277673        4.130686        3.684072
 C        -9.762263        2.799284        3.684072
 C        -9.933751        2.111484        2.456048
 C       -10.130939        0.708424        2.456048
 C       -10.155677       -0.000000        3.684072
 C       -10.056843       -1.413397        3.684072
 C        -9.933751       -2.111484        2.456048
 C        -9.543215       -3.473446        2.456048
 C        -9.277673       -4.130686        3.684072
 C        -8.612502       -5.381689        3.684072
 C        -8.216115       -5.969357        2.456048
 C        -7.305383       -7.054726        2.456048
 C        -6.795474       -7.547139        3.684072
 C        -5.678982       -8.419437        3.684072
 C        -5.077838       -8.795074        2.456048
 C        -3.804384       -9.416180        2.456048
 C        -3.138277       -9.658623        3.684072
 C        -1.763515      -10.001390        3.684072
 C        -1.061557      -10.100043        2.456048
 C         0.354428      -10.149490        2.456048
 C         1.061557      -10.100043        3.684072
 C         2.456881       -9.854010        3.684072
 C         3.138277       -9.658623        2.456048
 C         4.451956       -9.127862        2.456048
 C         5.077838       -8.795074        3.684072
 C         6.252459       -8.002783        3.684072
 C         6.795474       -7.547139        2.456048
 C         7.779700       -6.527943        2.456048
 C         8.216115       -5.969357        3.684072
 C         8.966930       -4.767801        3.684072
 C         9.277673       -4.130686        2.456048
 C         9.762263       -2.799284        2.456048
 C         9.933751       -2.111484        3.684072
 C        10.130939       -0.708424        3.684072
 C        10.155677        0.000000        4.912096
 C        10.056843        1.413397        4.912096
 C         9.933751        2.111484        6.140120
 C         9.543215        3.473446        6.140120
 C         9.277673        4.130686        4.912096
 C         8.612502        5.381689        4.912096
 C         8.216115        5.969357        6.140120
 C         7.305383        7.054726        6.140120
 C         6.795474        7.547139        4.912096
 C         5.678982        8.419437        4.912096
 C         5.077838        8.795074        6.140120
 C         3.804384        9.416180        6.140120
 C         3.138277        9.658623        4.912096
 C         1.763515       10.001390        4.912096
 C         1.061557       10.100043        6.140120
 C        -0.354428       10.149490        6.140120
 C        -1.061557       10.100043        4.912096
 C        -2.456881        9.854010        4.912096
 C        -3.138277        9.658623        6.140120
 C        -4.451956        9.127862        6.140120
 C        -5.077838        8.795074        4.912096
 C        -6.252459        8.002783        4.912096
 C        -6.795474        7.547139        6.140120
 C        -7.779700        6.527943        6.140120
 C        -8.216115        5.969357        4.912096
 C        -8.966930        4.767801        4.912096
 C        -9.277673        4.130686        6.140120
 C        -9.762263        2.799284        6.140120
 C        -9.933751        2.111484        4.912096
 C       -10.130939        0.708424        4.912096
 C       -10.155677       -0.000000        6.140120
 C       -10.056843       -1.413397        6.140120
 C        -9.933751       -2.111484        4.912096
 C        -9.543215       -3.473446        4.912096
 C        -9.277673       -4.130686        6.140120
 C        -8.612502       -5.381689        6.140120
 C        -8.216115       -5.969357        4.912096
 C        -7.305383       -7.054726        4.912096
 C        -6.795474       -7.547139        6.140120
 C        -5.678982       -8.419437        6.140120
 C        -5.077838       -8.795074        4.912096
 C        -3.804384       -9.416180        4.912096
 C        -3.138277       -9.658623        6.140120
 C        -1.763515      -10.001390        6.140120
 C        -1.061557      -10.100043        4.912096
 C         0.354428      -10.149490        4.912096
 C         1.061557      -10.100043        6.140120
 C         2.456881       -9.854010        6.140120
 C         3.138277       -9.658623        4.912096
 C         4.451956       -9.127862        4.912096
 C         5.077838       -8.795074        6.140120
 C         6.252459       -8.002783        6.140120
 C         6.795474       -7.547139        4.912096
 C         7.779700       -6.527943        4.912096
 C         8.216115       -5.969357        6.140120
 C         8.966930       -4.767801        6.140120
 C         9.277673       -4.130686        4.912096
 C         9.762263       -2.799284        4.912096
 C         9.933751       -2.111484        6.140120
 C        10.130939       -0.708424        6.140120
 C        10.155677        0.000000        7.368144
 C        10.056843        1.413397        7.368144
 C         9.933751        2.111484        8.596169
 C         9.543215        3.473446        8.596169
 C         9.277673        4.130686        7.368144
 C         8.612502        5.381689        7.368144
 C         8.216115        5.969357        8.596169
 C         7.305383        7.054726        8.596169
 C         6.795474        7.547139        7.368144
 C         5.678982        8.419437        7.368144
 C         5.077838        8.795074        8.596169
 C         3.804384        9.416180        8.596169
 C         3.138277        9.658623        7.368144
 C         1.763515       10.001390        7.368144
 C         1.061557       10.100043        8.596169
 C        -0.354428       10.149490        8.596169
 C        -1.061557       10.100043        7.368144
 C        -2.456881        9.854010        7.368144
 C        -3.138277        9.658623        8.596169
 C        -4.451956        9.127862        8.596169
 C        -5.077838        8.795074        7.368144
 C        -6.252459        8.002783        7.368144
 C        -6.795474        7.547139        8.596169
 C        -7.779700        6.527943        8.596169
 C        -8.216115        5.969357        7.368144
 C        -8.966930        4.767801        7.368144
 C        -9.277673        4.130686        8.596169
 C        -9.762263        2.799284        8.596169
 C        -9.933751        2.111484        7.368144
 C       -10.130939        0.708424        7.368144
 C       -10.155677       -0.000000        8.596169
 C       -10.056843       -1.413397        8.596169
 C        -9.933751       -2.111484        7.368144
 C        -9.543215       -3.473446        7.368144
 C        -9.277673       -4.130686        8.596169
 C        -8.612502       -5.381689        8.596169
 C        -8.216115       -5.969357        7.368144
 C        -7.305383       -7.054726        7.368144
 C        -6.795474       -7.547139        8.596169
 C        -5.678982       -8.419437        8.596169
 C        -5.077838       -8.795074        7.368144
 C        -3.804384       -9.416180        7.368144
 C        -3.138277       -9.658623        8.596169
 C        -1.763515      -10.001390        8.596169
 C        -1.061557      -10.100043        7.368144
 C         0.354428      -10.149490        7.368144
 C         1.061557      -10.100043        8.596169
 C         2.456881       -9.854010        8.596169
 C         3.138277       -9.658623        7.368144
 C         4.451956       -9.127862        7.368144
 C         5.077838       -8.795074        8.596169
 C         6.252459       -8.002783        8.596169
 C         6.795474       -7.547139        7.368144
 C         7.779700       -6.527943        7.368144
 C         8.216115       -5.969357        8.596169
 C         8.966930       -4.767801        8.596169
 C         9.277673       -4.130686        7.368144
 C         9.762263       -2.799284        7.368144
 C         9.933751       -2.111484        8.596169
 C        10.130939       -0.708424        8.596169
 C        10.155677        0.000000        9.824192
 C        10.056843        1.413397        9.824192
 C         9.933751        2.111484       11.052217
 C         9.543215        3.473446       11.052217
 C         9.277673        4.130686        9.824192
 C         8.612502        5.381689        9.824192
 C         8.216115        5.969357       11.052217
 C         7.305383        7.054726       11.052217
 C         6.795474        7.547139        9.824192
 C         5.678982        8.419437        9.824192
 C         5.077838        8.795074       11.052217
 C         3.804384        9.416180       11.052217
 C         3.138277        9.658623        9.824192
 C         1.763515       10.001390        9.824192
 C         1.061557       10.100043       11.052217
 C        -0.354428       10.149490       11.052217
 C        -1.061557       10.100043        9.824192
 C        -2.456881        9.854010        9.824192
 C        -3.138277        9.658623       11.052217
 C        -4.451956        9.127862       11.052217
 C        -5.077838        8.795074        9.824192
 C        -6.252459        8.002783        9.824192
 C        -6.795474        7.547139       11.052217
 C        -7.779700        6.527943       11.052217
 C        -8.216115        5.969357        9.824192
 C        -8.966930        4.767801        9.824192
 C        -9.277673        4.130686       11.052217
 C        -9.762263        2.799284       11.052217
 C        -9.933751        2.111484        9.824192
 C       -10.130939        0.708424        9.824192
 C       -10.155677       -0.000000       11.052217
 C       -10.056843       -1.413397       11.052217
 C        -9.933751       -2.111484        9.824192
 C        -9.543215       -3.473446        9.824192
 C        -9.277673       -4.130686       11.052217
 C        -8.612502       -5.381689       11.052217
 C        -8.216115       -5.969357        9.824192
 C        -7.305383       -7.054726        9.824192
 C        -6.795474       -7.547139       11.052217
 C        -5.678982       -8.419437       11.052217
 C        -5.077838       -8.795074        9.824192
 C        -3.804384       -9.416180        9.824192
 C        -3.138277       -9.658623       11.052217
 C        -1.763515      -10.001390       11.052217
 C        -1.061557      -10.100043        9.824192
 C         0.354428      -10.149490        9.824192
 C         1.061557      -10.100043       11.052217
 C         2.456881       -9.854010       11.052217
 C         3.138277       -9.658623        9.824192
 C         4.451956       -9.127862        9.824192
 C         5.077838       -8.795074       11.052217
 C         6.252459       -8.002783       11.052217
 C         6.795474       -7.547139        9.824192
 C         7.779700       -6.527943        9.824192
 C         8.216115       -5.969357       11.052217
 C         8.966930       -4.767801       11.052217
 C         9.277673       -4.130686        9.824192
 C         9.762263       -2.799284        9.824192
 C         9.933751       -2.111484       11.052217
 C        10.130939       -0.708424       11.052217
 C        10.155677        0.000000       12.280240
 C        10.056843        1.413397       12.280240
 C         9.933751        2.111484       13.508265
 C         9.543215        3.473446       13.508265
 C         9.277673        4.130686       12.280240
 C         8.612502        5.381689       12.280240
 C         8.216115        5.969357       13.508265
 C         7.305383        7.054726       13.508265
 C         6.795474        7.547139       12.280240
 C         5.678982        8.419437       12.280240
 C         5.077838        8.795074       13.508265
 C         3.804384        9.416180       13.508265
 C         3.138277        9.658623       12.280240
 C         1.763515       10.001390       12.280240
 C         1.061557       10.100043       13.508265
 C        -0.354428       10.149490       13.508265
 C        -1.061557       10.100043       12.280240
 C        -2.456881        9.854010       12.280240
 C        -3.138277        9.658623       13.508265
 C        -4.451956        9.127862       13.508265
 C        -5.077838        8.795074       12.280240
 C        -6.252459        8.002783       12.280240
 C        -6.795474        7.547139       13.508265
 C        -7.779700        6.527943       13.508265
 C        -8.216115        5.969357       12.280240
 C        -8.966930        4.767801       12.280240
 C        -9.277673        4.130686       13.508265
 C        -9.762263        2.799284       13.508265
 C        -9.933751        2.111484       12.280240
 C       -10.130939        0.708424       12.280240
 C       -10.155677       -0.000000       13.508265
 C       -10.056843       -1.413397       13.508265
 C        -9.933751       -2.111484       12.280240
 C        -9.543215       -3.473446       12.280240
 C        -9.277673       -4.130686       13.508265
 C        -8.612502       -5.381689       13.508265
 C        -8.216115       -5.969357       12.280240
 C        -7.305383       -7.054726       12.280240
 C        -6.795474       -7.547139       13.508265
 C        -5.678982       -8.419437       13.508265
 C        -5.077838       -8.795074       12.280240
 C        -3.804384       -9.416180       12.280240
 C        -3.138277       -9.658623       13.508265
 C        -1.763515      -10.001390       13.508265
 C        -1.061557      -10.100043       12.280240
 C         0.354428      -10.149490       12.280240
 C         1.061557      -10.100043       13.508265
 C         2.456881       -9.854010       13.508265
 C         3.138277       -9.658623       12.280240
 C         4.451956       -9.127862       12.280240
 C         5.077838       -8.795074       13.508265
 C         6.252459       -8.002783       13.508265
 C         6.795474       -7.547139       12.280240
 C         7.779700       -6.527943       12.280240
 C         8.216115       -5.969357       13.508265
 C         8.966930       -4.767801       13.508265
 C         9.277673       -4.130686       12.280240
 C         9.762263       -2.799284       12.280240
 C         9.933751       -2.111484       13.508265
 C        10.130939       -0.708424       13.508265
 C        10.155677        0.000000       14.736288
 C        10.056843        1.413397       14.736288
 C         9.933751        2.111484       15.964313
 C         9.543215        3.473446       15.964313
 C         9.277673        4.130686       14.736288
 C         8.612502        5.381689       14.736288
 C         8.216115        5.969357       15.964313
 C         7.305383        7.054726       15.964313
 C         6.795474        7.547139       14.736288
 C         5.678982        8.419437       14.736288
 C         5.077838        8.795074       15.964313
 C         3.804384        9.416180       15.964313
 C         3.138277        9.658623       14.736288
 C         1.763515       10.001390       14.736288
 C         1.061557       10.100043       15.964313
 C        -0.354428       10.149490       15.964313
 C        -1.061557       10.100043       14.736288
 C        -2.456881        9.854010       14.736288
 C        -3.138277        9.658623       15.964313
 C        -4.451956        9.127862       15.964313
 C        -5.077838        8.795074       14.736288
 C        -6.252459        8.002783       14.736288
 C        -6.795474        7.547139       15.964313
 C        -7.779700        6.527943       15.964313
 C        -8.216115        5.969357       14.736288
 C        -8.966930        4.767801       14.736288
 C        -9.277673        4.130686       15.964313
 C        -9.762263        2.799284       15.964313
 C        -9.933751        2.111484       14.736288
 C       -10.130939        0.708424       14.736288
 C       -10.155677       -0.000000       15.964313
 C       -10.056843       -1.413397       15.964313
 C        -9.933751       -2.111484       14.736288
 C        -9.543215       -3.473446       14.736288
 C        -9.277673       -4.130686       15.964313
 C        -8.612502       -5.381689       15.964313
 C        -8.216115       -5.969357       14.736288
 C        -7.305383       -7.054726       14.736288
 C        -6.795474       -7.547139       15.964313
 C        -5.678982       -8.419437       15.964313
 C        -5.077838       -8.795074       14.736288
 C        -3.804384       -9.416180       14.736288
 C        -3.138277       -9.658623       15.964313
 C        -1.763515      -10.001390       15.964313
 C        -1.061557      -10.100043       14.736288
 C         0.354428      -10.149490       14.736288
 C         1.061557      -10.100043       15.964313
 C         2.456881       -9.854010       15.964313
 C         3.138277       -9.658623       14.736288
 C         4.451956       -9.127862       14.736288
 C         5.077838       -8.795074       15.964313
 C         6.252459       -8.002783       15.964313
 C         6.795474       -7.547139       14.736288
 C         7.779700       -6.527943       14.736288
 C         8.216115       -5.969357       15.964313
 C         8.966930       -4.767801       15.964313
 C         9.277673       -4.130686       14.736288
 C         9.762263       -2.799284       14.736288
 C         9.933751       -2.111484       15.964313
 C        10.130939       -0.708424       15.964313
