308
 generated by VMD
 C    25.9074960000000	13.5273000000000	60              
 C    25.7729110000000	14.9367480000000	60              
 C    25.6058210000000	15.6255020000000	61.2280240000000
 C    25.0795990000000	16.9399400000000	61.2280240000000
 C    24.7252330000000	17.5537210000000	60              
 C    23.8500070000000	18.6666610000000	60              
 C    23.3370730000000	19.1557420000000	61.2280240000000
 C    22.1837480000000	19.9770210000000	61.2280240000000
 C    21.5538020000000	20.3017810000000	60              
 C    20.2158140000000	20.7648630000000	60              
 C    19.5198890000000	20.8989920000000	61.2280240000000
 C    18.1056340000000	20.9663610000000	61.2280240000000
 C    17.4001110000000	20.8989920000000	60              
 C    16.0241620000000	20.5651900000000	60              
 C    15.3661980000000	20.3017810000000	61.2280240000000
 C    14.1400280000000	19.5938520000000	61.2280240000000
 C    13.5829270000000	19.1557420000000	60              
 C    12.6058730000000	18.1310370000000	60              
 C    12.1947670000000	17.5537210000000	61.2280240000000
 C    11.5459830000000	16.2952550000000	61.2280240000000
 C    11.3141790000000	15.6255020000000	60              
 C    11.0462260000000	14.2352300000000	60              
 C    11.0125040000000	13.5273000000000	61.2280240000000
 C    11.1470890000000	12.1178520000000	61.2280240000000
 C    11.3141790000000	11.4290980000000	60              
 C    11.8404010000000	10.1146600000000	60              
 C    12.1947670000000	9.50087900000000	61.2280240000000
 C    13.0699930000000	8.38793900000000	61.2280240000000
 C    13.5829270000000	7.89885800000000	60              
 C    14.7362520000000	7.07757900000000	60              
 C    15.3661980000000	6.75281900000000	61.2280240000000
 C    16.7041860000000	6.28973700000000	61.2280240000000
 C    17.4001110000000	6.15560800000000	60              
 C    18.8143660000000	6.08823900000000	60              
 C    19.5198890000000	6.15560800000000	61.2280240000000
 C    20.8958380000000	6.48941000000000	61.2280240000000
 C    21.5538020000000	6.75281900000000	60              
 C    22.7799720000000	7.46074800000000	60              
 C    23.3370730000000	7.89885800000000	61.2280240000000
 C    24.3141270000000	8.92356300000000	61.2280240000000
 C    24.7252330000000	9.50087900000000	60              
 C    25.3740170000000	10.7593450000000	60              
 C    25.6058210000000	11.4290980000000	61.2280240000000
 C    25.8737740000000	12.8193700000000	61.2280240000000
 C    25.9074960000000	13.5273000000000	62.4560480000000
 C    25.7729110000000	14.9367480000000	62.4560480000000
 C    25.6058210000000	15.6255020000000	63.6840720000000
 C    25.0795990000000	16.9399400000000	63.6840720000000
 C    24.7252330000000	17.5537210000000	62.4560480000000
 C    23.8500070000000	18.6666610000000	62.4560480000000
 C    23.3370730000000	19.1557420000000	63.6840720000000
 C    22.1837480000000	19.9770210000000	63.6840720000000
 C    21.5538020000000	20.3017810000000	62.4560480000000
 C    20.2158140000000	20.7648630000000	62.4560480000000
 C    19.5198890000000	20.8989920000000	63.6840720000000
 C    18.1056340000000	20.9663610000000	63.6840720000000
 C    17.4001110000000	20.8989920000000	62.4560480000000
 C    16.0241620000000	20.5651900000000	62.4560480000000
 C    15.3661980000000	20.3017810000000	63.6840720000000
 C    14.1400280000000	19.5938520000000	63.6840720000000
 C    13.5829270000000	19.1557420000000	62.4560480000000
 C    12.6058730000000	18.1310370000000	62.4560480000000
 C    12.1947670000000	17.5537210000000	63.6840720000000
 C    11.5459830000000	16.2952550000000	63.6840720000000
 C    11.3141790000000	15.6255020000000	62.4560480000000
 C    11.0462260000000	14.2352300000000	62.4560480000000
 C    11.0125040000000	13.5273000000000	63.6840720000000
 C    11.1470890000000	12.1178520000000	63.6840720000000
 C    11.3141790000000	11.4290980000000	62.4560480000000
 C    11.8404010000000	10.1146600000000	62.4560480000000
 C    12.1947670000000	9.50087900000000	63.6840720000000
 C    13.0699930000000	8.38793900000000	63.6840720000000
 C    13.5829270000000	7.89885800000000	62.4560480000000
 C    14.7362520000000	7.07757900000000	62.4560480000000
 C    15.3661980000000	6.75281900000000	63.6840720000000
 C    16.7041860000000	6.28973700000000	63.6840720000000
 C    17.4001110000000	6.15560800000000	62.4560480000000
 C    18.8143660000000	6.08823900000000	62.4560480000000
 C    19.5198890000000	6.15560800000000	63.6840720000000
 C    20.8958380000000	6.48941000000000	63.6840720000000
 C    21.5538020000000	6.75281900000000	62.4560480000000
 C    22.7799720000000	7.46074800000000	62.4560480000000
 C    23.3370730000000	7.89885800000000	63.6840720000000
 C    24.3141270000000	8.92356300000000	63.6840720000000
 C    24.7252330000000	9.50087900000000	62.4560480000000
 C    25.3740170000000	10.7593450000000	62.4560480000000
 C    25.6058210000000	11.4290980000000	63.6840720000000
 C    25.8737740000000	12.8193700000000	63.6840720000000
 C    25.9074960000000	13.5273000000000	64.9120960000000
 C    25.7729110000000	14.9367480000000	64.9120960000000
 C    25.6058210000000	15.6255020000000	66.1401200000000
 C    25.0795990000000	16.9399400000000	66.1401200000000
 C    24.7252330000000	17.5537210000000	64.9120960000000
 C    23.8500070000000	18.6666610000000	64.9120960000000
 C    23.3370730000000	19.1557420000000	66.1401200000000
 C    22.1837480000000	19.9770210000000	66.1401200000000
 C    21.5538020000000	20.3017810000000	64.9120960000000
 C    20.2158140000000	20.7648630000000	64.9120960000000
 C    19.5198890000000	20.8989920000000	66.1401200000000
 C    18.1056340000000	20.9663610000000	66.1401200000000
 C    17.4001110000000	20.8989920000000	64.9120960000000
 C    16.0241620000000	20.5651900000000	64.9120960000000
 C    15.3661980000000	20.3017810000000	66.1401200000000
 C    14.1400280000000	19.5938520000000	66.1401200000000
 C    13.5829270000000	19.1557420000000	64.9120960000000
 C    12.6058730000000	18.1310370000000	64.9120960000000
 C    12.1947670000000	17.5537210000000	66.1401200000000
 C    11.5459830000000	16.2952550000000	66.1401200000000
 C    11.3141790000000	15.6255020000000	64.9120960000000
 C    11.0462260000000	14.2352300000000	64.9120960000000
 C    11.0125040000000	13.5273000000000	66.1401200000000
 C    11.1470890000000	12.1178520000000	66.1401200000000
 C    11.3141790000000	11.4290980000000	64.9120960000000
 C    11.8404010000000	10.1146600000000	64.9120960000000
 C    12.1947670000000	9.50087900000000	66.1401200000000
 C    13.0699930000000	8.38793900000000	66.1401200000000
 C    13.5829270000000	7.89885800000000	64.9120960000000
 C    14.7362520000000	7.07757900000000	64.9120960000000
 C    15.3661980000000	6.75281900000000	66.1401200000000
 C    16.7041860000000	6.28973700000000	66.1401200000000
 C    17.4001110000000	6.15560800000000	64.9120960000000
 C    18.8143660000000	6.08823900000000	64.9120960000000
 C    19.5198890000000	6.15560800000000	66.1401200000000
 C    20.8958380000000	6.48941000000000	66.1401200000000
 C    21.5538020000000	6.75281900000000	64.9120960000000
 C    22.7799720000000	7.46074800000000	64.9120960000000
 C    23.3370730000000	7.89885800000000	66.1401200000000
 C    24.3141270000000	8.92356300000000	66.1401200000000
 C    24.7252330000000	9.50087900000000	64.9120960000000
 C    25.3740170000000	10.7593450000000	64.9120960000000
 C    25.6058210000000	11.4290980000000	66.1401200000000
 C    25.8737740000000	12.8193700000000	66.1401200000000
 C    25.9074960000000	13.5273000000000	67.3681440000000
 C    25.7729110000000	14.9367480000000	67.3681440000000
 C    25.6058210000000	15.6255020000000	68.5961690000000
 C    25.0795990000000	16.9399400000000	68.5961690000000
 C    24.7252330000000	17.5537210000000	67.3681440000000
 C    23.8500070000000	18.6666610000000	67.3681440000000
 C    23.3370730000000	19.1557420000000	68.5961690000000
 C    22.1837480000000	19.9770210000000	68.5961690000000
 C    21.5538020000000	20.3017810000000	67.3681440000000
 C    20.2158140000000	20.7648630000000	67.3681440000000
 C    19.5198890000000	20.8989920000000	68.5961690000000
 C    18.1056340000000	20.9663610000000	68.5961690000000
 C    17.4001110000000	20.8989920000000	67.3681440000000
 C    16.0241620000000	20.5651900000000	67.3681440000000
 C    15.3661980000000	20.3017810000000	68.5961690000000
 C    14.1400280000000	19.5938520000000	68.5961690000000
 C    13.5829270000000	19.1557420000000	67.3681440000000
 C    12.6058730000000	18.1310370000000	67.3681440000000
 C    12.1947670000000	17.5537210000000	68.5961690000000
 C    11.5459830000000	16.2952550000000	68.5961690000000
 C    11.3141790000000	15.6255020000000	67.3681440000000
 C    11.0462260000000	14.2352300000000	67.3681440000000
 C    11.0125040000000	13.5273000000000	68.5961690000000
 C    11.1470890000000	12.1178520000000	68.5961690000000
 C    11.3141790000000	11.4290980000000	67.3681440000000
 C    11.8404010000000	10.1146600000000	67.3681440000000
 C    12.1947670000000	9.50087900000000	68.5961690000000
 C    13.0699930000000	8.38793900000000	68.5961690000000
 C    13.5829270000000	7.89885800000000	67.3681440000000
 C    14.7362520000000	7.07757900000000	67.3681440000000
 C    15.3661980000000	6.75281900000000	68.5961690000000
 C    16.7041860000000	6.28973700000000	68.5961690000000
 C    17.4001110000000	6.15560800000000	67.3681440000000
 C    18.8143660000000	6.08823900000000	67.3681440000000
 C    19.5198890000000	6.15560800000000	68.5961690000000
 C    20.8958380000000	6.48941000000000	68.5961690000000
 C    21.5538020000000	6.75281900000000	67.3681440000000
 C    22.7799720000000	7.46074800000000	67.3681440000000
 C    23.3370730000000	7.89885800000000	68.5961690000000
 C    24.3141270000000	8.92356300000000	68.5961690000000
 C    24.7252330000000	9.50087900000000	67.3681440000000
 C    25.3740170000000	10.7593450000000	67.3681440000000
 C    25.6058210000000	11.4290980000000	68.5961690000000
 C    25.8737740000000	12.8193700000000	68.5961690000000
 C    25.9074960000000	13.5273000000000	69.8241920000000
 C    25.7729110000000	14.9367480000000	69.8241920000000
 C    25.6058210000000	15.6255020000000	71.0522170000000
 C    25.0795990000000	16.9399400000000	71.0522170000000
 C    24.7252330000000	17.5537210000000	69.8241920000000
 C    23.8500070000000	18.6666610000000	69.8241920000000
 C    23.3370730000000	19.1557420000000	71.0522170000000
 C    22.1837480000000	19.9770210000000	71.0522170000000
 C    21.5538020000000	20.3017810000000	69.8241920000000
 C    20.2158140000000	20.7648630000000	69.8241920000000
 C    19.5198890000000	20.8989920000000	71.0522170000000
 C    18.1056340000000	20.9663610000000	71.0522170000000
 C    17.4001110000000	20.8989920000000	69.8241920000000
 C    16.0241620000000	20.5651900000000	69.8241920000000
 C    15.3661980000000	20.3017810000000	71.0522170000000
 C    14.1400280000000	19.5938520000000	71.0522170000000
 C    13.5829270000000	19.1557420000000	69.8241920000000
 C    12.6058730000000	18.1310370000000	69.8241920000000
 C    12.1947670000000	17.5537210000000	71.0522170000000
 C    11.5459830000000	16.2952550000000	71.0522170000000
 C    11.3141790000000	15.6255020000000	69.8241920000000
 C    11.0462260000000	14.2352300000000	69.8241920000000
 C    11.0125040000000	13.5273000000000	71.0522170000000
 C    11.1470890000000	12.1178520000000	71.0522170000000
 C    11.3141790000000	11.4290980000000	69.8241920000000
 C    11.8404010000000	10.1146600000000	69.8241920000000
 C    12.1947670000000	9.50087900000000	71.0522170000000
 C    13.0699930000000	8.38793900000000	71.0522170000000
 C    13.5829270000000	7.89885800000000	69.8241920000000
 C    14.7362520000000	7.07757900000000	69.8241920000000
 C    15.3661980000000	6.75281900000000	71.0522170000000
 C    16.7041860000000	6.28973700000000	71.0522170000000
 C    17.4001110000000	6.15560800000000	69.8241920000000
 C    18.8143660000000	6.08823900000000	69.8241920000000
 C    19.5198890000000	6.15560800000000	71.0522170000000
 C    20.8958380000000	6.48941000000000	71.0522170000000
 C    21.5538020000000	6.75281900000000	69.8241920000000
 C    22.7799720000000	7.46074800000000	69.8241920000000
 C    23.3370730000000	7.89885800000000	71.0522170000000
 C    24.3141270000000	8.92356300000000	71.0522170000000
 C    24.7252330000000	9.50087900000000	69.8241920000000
 C    25.3740170000000	10.7593450000000	69.8241920000000
 C    25.6058210000000	11.4290980000000	71.0522170000000
 C    25.8737740000000	12.8193700000000	71.0522170000000
 C    25.9074960000000	13.5273000000000	72.2802400000000
 C    25.7729110000000	14.9367480000000	72.2802400000000
 C    25.6058210000000	15.6255020000000	73.5082650000000
 C    25.0795990000000	16.9399400000000	73.5082650000000
 C    24.7252330000000	17.5537210000000	72.2802400000000
 C    23.8500070000000	18.6666610000000	72.2802400000000
 C    23.3370730000000	19.1557420000000	73.5082650000000
 C    22.1837480000000	19.9770210000000	73.5082650000000
 C    21.5538020000000	20.3017810000000	72.2802400000000
 C    20.2158140000000	20.7648630000000	72.2802400000000
 C    19.5198890000000	20.8989920000000	73.5082650000000
 C    18.1056340000000	20.9663610000000	73.5082650000000
 C    17.4001110000000	20.8989920000000	72.2802400000000
 C    16.0241620000000	20.5651900000000	72.2802400000000
 C    15.3661980000000	20.3017810000000	73.5082650000000
 C    14.1400280000000	19.5938520000000	73.5082650000000
 C    13.5829270000000	19.1557420000000	72.2802400000000
 C    12.6058730000000	18.1310370000000	72.2802400000000
 C    12.1947670000000	17.5537210000000	73.5082650000000
 C    11.5459830000000	16.2952550000000	73.5082650000000
 C    11.3141790000000	15.6255020000000	72.2802400000000
 C    11.0462260000000	14.2352300000000	72.2802400000000
 C    11.0125040000000	13.5273000000000	73.5082650000000
 C    11.1470890000000	12.1178520000000	73.5082650000000
 C    11.3141790000000	11.4290980000000	72.2802400000000
 C    11.8404010000000	10.1146600000000	72.2802400000000
 C    12.1947670000000	9.50087900000000	73.5082650000000
 C    13.0699930000000	8.38793900000000	73.5082650000000
 C    13.5829270000000	7.89885800000000	72.2802400000000
 C    14.7362520000000	7.07757900000000	72.2802400000000
 C    15.3661980000000	6.75281900000000	73.5082650000000
 C    16.7041860000000	6.28973700000000	73.5082650000000
 C    17.4001110000000	6.15560800000000	72.2802400000000
 C    18.8143660000000	6.08823900000000	72.2802400000000
 C    19.5198890000000	6.15560800000000	73.5082650000000
 C    20.8958380000000	6.48941000000000	73.5082650000000
 C    21.5538020000000	6.75281900000000	72.2802400000000
 C    22.7799720000000	7.46074800000000	72.2802400000000
 C    23.3370730000000	7.89885800000000	73.5082650000000
 C    24.3141270000000	8.92356300000000	73.5082650000000
 C    24.7252330000000	9.50087900000000	72.2802400000000
 C    25.3740170000000	10.7593450000000	72.2802400000000
 C    25.6058210000000	11.4290980000000	73.5082650000000
 C    25.8737740000000	12.8193700000000	73.5082650000000
 C    25.9074960000000	13.5273000000000	74.7362880000000
 C    25.7729110000000	14.9367480000000	74.7362880000000
 C    25.6058210000000	15.6255020000000	75.9643130000000
 C    25.0795990000000	16.9399400000000	75.9643130000000
 C    24.7252330000000	17.5537210000000	74.7362880000000
 C    23.8500070000000	18.6666610000000	74.7362880000000
 C    23.3370730000000	19.1557420000000	75.9643130000000
 C    22.1837480000000	19.9770210000000	75.9643130000000
 C    21.5538020000000	20.3017810000000	74.7362880000000
 C    20.2158140000000	20.7648630000000	74.7362880000000
 C    19.5198890000000	20.8989920000000	75.9643130000000
 C    18.1056340000000	20.9663610000000	75.9643130000000
 C    17.4001110000000	20.8989920000000	74.7362880000000
 C    16.0241620000000	20.5651900000000	74.7362880000000
 C    15.3661980000000	20.3017810000000	75.9643130000000
 C    14.1400280000000	19.5938520000000	75.9643130000000
 C    13.5829270000000	19.1557420000000	74.7362880000000
 C    12.6058730000000	18.1310370000000	74.7362880000000
 C    12.1947670000000	17.5537210000000	75.9643130000000
 C    11.5459830000000	16.2952550000000	75.9643130000000
 C    11.3141790000000	15.6255020000000	74.7362880000000
 C    11.0462260000000	14.2352300000000	74.7362880000000
 C    11.0125040000000	13.5273000000000	75.9643130000000
 C    11.1470890000000	12.1178520000000	75.9643130000000
 C    11.3141790000000	11.4290980000000	74.7362880000000
 C    11.8404010000000	10.1146600000000	74.7362880000000
 C    12.1947670000000	9.50087900000000	75.9643130000000
 C    13.0699930000000	8.38793900000000	75.9643130000000
 C    13.5829270000000	7.89885800000000	74.7362880000000
 C    14.7362520000000	7.07757900000000	74.7362880000000
 C    15.3661980000000	6.75281900000000	75.9643130000000
 C    16.7041860000000	6.28973700000000	75.9643130000000
 C    17.4001110000000	6.15560800000000	74.7362880000000
 C    18.8143660000000	6.08823900000000	74.7362880000000
 C    19.5198890000000	6.15560800000000	75.9643130000000
 C    20.8958380000000	6.48941000000000	75.9643130000000
 C    21.5538020000000	6.75281900000000	74.7362880000000
 C    22.7799720000000	7.46074800000000	74.7362880000000
 C    23.3370730000000	7.89885800000000	75.9643130000000
 C    24.3141270000000	8.92356300000000	75.9643130000000
 C    24.7252330000000	9.50087900000000	74.7362880000000
 C    25.3740170000000	10.7593450000000	74.7362880000000
 C    25.6058210000000	11.4290980000000	75.9643130000000
 C    25.8737740000000	12.8193700000000	75.9643130000000
