624
29.8826 49.8719 0
C 5.93071 43.3307 1.57069
C 9.0564 43.0692 1.73233
C 10.4581 43.2511 1.33256
C 29.5341 44.8971 -0.387236
C 0.579159 45.8262 -0.771374
C 2.50247 44.5756 0.349274
C 3.88655 44.4879 0.719243
C 1.98944 45.6767 -0.39197
C 4.74059 45.5603 0.518695
C 6.7713 44.3903 1.34421
C 8.18681 44.2358 1.41779
C 6.11427 45.535 0.869667
C 8.82301 45.5756 1.1639
C 10.8052 44.3835 0.587612
C 10.2196 45.6112 0.852332
C 0.27068 46.8699 -1.66879
C 1.32637 47.7147 -2.0366
C 2.9453 46.6448 -0.712411
C 4.22377 46.6822 -0.16282
C 2.56526 47.753 -1.45997
C 4.97776 47.8774 -0.187539
C 6.81015 46.7992 0.811342
C 8.17953 46.7916 1.02209
C 6.21273 47.938 0.370653
C 8.89982 48.0443 0.913992
C 10.9116 46.7861 0.733293
C 12.2496 46.8408 0.261813
C 10.2841 48.0179 0.883512
C 13.0853 47.9181 0.383807
C 29.2761 48.7042 -2.78447
C 0.814245 48.8084 -2.7517
C 28.482 49.7704 -2.90293
C 1.42449 50.0672 -2.57014
C 3.25553 48.9558 -1.48675
C 4.48743 49.0209 -0.820769
C 2.7025 50.1052 -2.0033
C 5.06811 50.2541 -0.716157
C 6.90393 49.1864 0.300314
C 8.26381 49.2564 0.562168
C 6.32838 50.3649 -0.164283
C 9.00734 50.4042 0.47234
C 11.0768 49.2035 0.702942
C 12.5124 49.1955 0.52721
C 10.4456 50.4077 0.600296
C 13.297 50.3751 0.442513
C 15.9928 1.15282 0.255069
C 29.0859 1.15591 -2.92383
C 0.54209 1.28603 -2.72707
C 28.2306 2.30954 -3.04138
C 1.08733 2.58414 -2.56014
C 3.15035 1.52512 -1.76515
C 4.40221 1.5179 -1.1146
C 2.34832 2.6357 -2.08728
C 4.96939 2.76103 -0.916661
C 7.0001 1.73713 -0.136699
C 8.39089 1.73224 0.0453791
C 6.28521 2.84576 -0.581376
C 9.07095 2.92815 -0.183924
C 11.1996 1.77855 0.391106
C 12.6627 1.78541 0.394759
C 10.4777 2.93319 0.105989
C 13.3694 3.04026 0.441883
C 28.7551 3.61315 -2.89346
C 0.233717 3.75485 -2.62247
C 0.712829 5.08629 -2.26308
C 2.84364 3.92289 -1.76734
C 4.19209 3.92072 -1.29811
C 2.15483 5.13084 -2.02351
C 4.88261 5.12636 -1.45419
C 6.95529 4.02037 -0.803337
C 8.38098 4.05073 -0.580374
C 6.24939 5.15162 -1.23778
C 9.04009 5.24205 -0.824072
C 11.1357 4.13331 -0.114021
C 12.5015 4.16477 0.236523
C 10.3894 5.28605 -0.502316
C 29.7707 6.26807 -2.14691
C 0.621812 7.46549 -2.1625
C 2.82036 6.34111 -1.92192
C 4.23374 6.32996 -1.77784
C 2.04377 7.55001 -2.19499
C 4.94936 7.4711 -2.17636
C 6.94438 6.33567 -1.49963
C 8.33988 6.32331 -1.30703
C 6.33242 7.36387 -2.14559
C 9.11504 7.43786 -1.61105
C 10.9922 6.57491 -0.485958
C 10.3276 7.68049 -1.02958
C 2.85115 8.84648 -2.40962
C 4.2365 8.63919 -2.53777
C 7.12633 8.4219 -2.58809
C 8.46053 8.47849 -2.31756
C 15.8708 18.4747 -1.79794
C 17.2738 18.4544 -1.85843
C 19.9794 18.8375 -2.53333
C 21.4181 18.7628 -2.60373
C 24.3405 18.8755 -2.65665
C 25.7372 19.0161 -2.58536
C 15.0169 19.6308 -2.09095
C 15.7277 20.9126 -1.93817
C 17.8909 19.7196 -2.04936
C 19.2145 19.9312 -2.35296
C 17.1496 20.8882 -1.80834
C 19.9288 21.0788 -2.11526
C 22.1458 19.9408 -2.58169
C 23.4996 19.9842 -2.69737
C 21.3289 21.0802 -2.28826
C 24.0966 21.2425 -2.58703
C 26.2982 20.2456 -2.59919
C 25.4854 21.3757 -2.62828
C 15.1583 22.2355 -2.14804
C 12.0689 23.861 -2.89671
C 15.8496 23.4166 -1.7375
C 17.8259 22.1154 -1.66285
C 19.2193 22.1962 -1.71999
C 17.1838 23.3626 -1.44971
C 19.8874 23.3569 -1.34016
C 21.9811 22.2884 -1.98454
C 23.3345 22.3766 -2.13146
C 21.2834 23.3718 -1.42957
C 24.1065 23.5071 -1.60211
C 26.2123 22.3984 -2.03088
C 27.4337 21.9359 -1.57454
C 25.4972 23.4821 -1.60885
C 28.0102 22.6349 -0.552926
C 14.0219 24.9363 -2.11976
C 15.2715 24.6838 -1.54517
C 13.3105 26.0704 -1.83606
C 15.9043 25.6918 -0.844193
C 17.8939 24.467 -0.8561
C 19.2412 24.4508 -0.781461
C 17.2227 25.5938 -0.466493
C 19.9151 25.5512 -0.26127
C 21.974 24.4979 -0.901666
C 23.371 24.4445 -0.913905
C 21.3101 25.5568 -0.294317
C 24.1085 25.4407 -0.211986
C 26.1909 24.2532 -0.689784
C 27.457 23.8821 -0.144506
C 25.5189 25.3242 -0.0827712
C 28.0773 24.829 0.723861
C 13.9047 27.0457 -1.00376
C 15.1504 26.8881 -0.513776
C 13.1033 28.0434 -0.407683
C 15.7254 27.9283 0.261011
C 17.8129 26.6778 0.160513
C 19.1997 26.6324 0.238881
C 17.1117 27.838 0.56225
C 19.9045 27.6857 0.8188
C 22.0124 26.5236 0.382941
C 23.4168 26.4543 0.503936
C 21.2941 27.6194 0.937014
C 24.1441 27.4241 1.18035
C 26.2718 26.3005 0.677413
C 27.6323 26.1123 0.901772
C 25.5512 27.4197 1.18183
C 28.5287 27.2319 1.34201
C 13.4937 28.9442 0.659076
C 14.9872 28.9687 0.795922
C 15.7445 30.0647 1.47468
C 17.826 28.93 1.13907
C 19.2175 28.8286 1.24603
C 17.1622 30.085 1.55024
C 19.9328 29.8465 1.89496
C 22.0033 28.5742 1.62266
C 23.3967 28.5051 1.75271
C 21.2935 29.6459 2.09207
C 24.1527 29.5646 2.29193
C 26.3022 28.5037 1.64206
C 27.7494 28.4795 1.68952
C 25.563 29.6213 2.02416
C 15.0915 31.0923 2.11628
C 15.8286 32.2555 2.39087
C 17.885 31.2399 1.96079
C 19.2809 31.1027 2.19987
C 17.216 32.4951 2.29476
C 19.9609 32.0399 2.86157
C 22.0159 30.6002 2.80422
C 23.3985 30.6614 2.80718
C 21.2784 31.7373 3.26683
C 24.0446 31.8619 2.96617
C 26.1207 30.8262 2.272
C 25.3359 31.9923 2.4899
C 17.5224 33.9114 2.53431
C 18.8076 34.3765 2.66997
C 22.0053 32.9352 3.51729
C 23.3289 33.0483 3.25536
C 7.04959 10.6965 -3.27595
C 8.33864 10.8643 -2.9165
C 2.12874 10.0789 -2.40036
C 2.45409 11.5239 -2.38638
C 4.78184 11.173 -3.09038
C 6.09253 11.7246 -3.21193
C 3.74993 12.0542 -2.68962
C 6.48119 12.9446 -2.7453
C 8.77709 12.1128 -2.45863
C 10.1044 12.3324 -1.95942
C 7.81559 13.1092 -2.35911
C 10.6383 13.6647 -1.68915
C 11.9893 13.9688 -1.36431
C 0.113809 12.2807 -1.88959
C 1.46697 12.5995 -2.07533
C 29.016 13.1402 -1.54176
C 1.79157 13.9953 -1.89165
C 4.11233 13.3832 -2.37083
C 5.50665 13.7669 -2.3065
C 3.10995 14.3611 -2.01917
C 5.87213 15.0666 -1.99933
C 8.22034 14.3444 -1.92203
C 9.58239 14.6751 -1.685
C 7.1939 15.3583 -1.88462
C 9.86475 15.9943 -1.69863
C 12.1885 15.4128 -1.43028
C 13.4661 15.8632 -1.32674
C 11.2016 16.3798 -1.6053
C 13.9102 17.1566 -1.50512
C 29.2767 14.5405 -1.47832
C 0.756773 14.9313 -1.49174
C 28.1963 15.4961 -1.40092
C 1.18664 16.2684 -1.41309
C 3.51156 15.6637 -1.80456
C 4.8879 16.012 -1.84871
C 2.49915 16.5942 -1.52265
C 5.25056 17.3566 -1.66848
C 7.59818 16.6493 -1.74333
C 8.91599 17.0046 -1.78269
C 6.62544 17.6607 -1.68161
C 9.29976 18.3353 -1.8536
C 11.653 17.7151 -1.84389
C 13.0182 18.1391 -1.82843
C 10.6659 18.6605 -2.00027
C 13.5552 19.4743 -2.1578
C 28.6259 16.9045 -1.37655
C 0.161342 17.2737 -1.24341
C 27.7673 17.9916 -1.65229
C 0.592543 18.6461 -0.959307
C 2.93303 17.8917 -1.26823
C 4.23066 18.2963 -1.51539
C 1.96054 18.906 -1.01645
C 4.6225 19.6181 -1.32179
C 7.03086 18.9783 -1.67455
C 8.3641 19.3322 -1.74398
C 6.02535 19.9396 -1.48863
C 8.70684 20.6767 -1.86773
C 11.0901 19.9897 -2.25068
C 12.5067 20.363 -2.39534
C 10.0482 20.9282 -2.23977
C 12.7447 21.7018 -2.73335
C 28.2987 19.3727 -1.44552
C 29.5896 19.7108 -0.899756
C 29.9932 20.967 -0.351814
C 2.42813 20.283 -0.860165
C 3.7527 20.6022 -1.00907
C 1.51568 21.2348 -0.416346
C 4.2293 21.9128 -0.830057
C 6.42931 21.2735 -1.48449
C 7.75519 21.6488 -1.73208
C 5.54616 22.2869 -1.10407
C 8.15056 23.0348 -1.73464
C 10.3121 22.2659 -2.53006
C 11.625 22.5512 -2.8669
C 9.44218 23.3121 -2.20058
C 29.2455 22.1823 0.0139389
C 29.8527 23.1781 0.816589
C 2.08923 22.4104 0.0451924
C 3.36464 22.8052 -0.300647
C 1.36658 23.3201 0.762822
C 3.77946 24.1471 -0.118247
C 5.99001 23.5771 -0.924608
C 7.27683 23.9932 -1.27035
C 5.10904 24.5152 -0.404068
C 7.79501 25.3205 -1.05249
C 9.95322 24.6347 -2.0943
C 11.2306 24.8824 -2.57183
C 9.0939 25.5932 -1.42807
C 1.71504 24.6957 0.997874
C 2.85778 25.0923 0.331437
C 5.5368 25.8671 -0.326998
C 6.91009 26.2153 -0.319414
C 21.5481 35.1747 2.83248
C 25.1804 34.5049 2.52748
C 22.8932 35.3228 2.65697
C 25.7076 35.7302 2.09546
C 16.9122 36.3561 2.47192
C 19.2363 35.7081 2.44105
C 20.5897 36.0544 2.47654
C 18.2689 36.6282 2.16811
C 21.0217 37.2777 1.9479
C 23.3646 36.4569 1.94312
C 24.7477 36.6261 1.59207
C 22.3747 37.4123 1.648
C 25.1056 37.7043 0.81088
C 26.4182 38.0171 0.561671
C 14.9709 37.5511 3.48212
C 16.1177 37.5221 2.68654
C 14.3649 38.8249 3.67203
C 16.5365 38.8196 2.13405
C 18.7173 37.9164 1.73797
C 20.0736 38.1962 1.598
C 17.7933 38.9674 1.59192
C 20.4931 39.3714 1.03833
C 22.7481 38.4592 0.815116
C 24.0926 38.6066 0.389409
C 21.8062 39.4584 0.57627
C 24.399 39.7286 -0.389509
C 26.7337 39.1025 -0.100425
C 25.717 39.8946 -0.655644
C 14.5979 39.9819 2.99862
C 15.7367 40.0038 2.20864
C 13.6245 40.8857 2.71744
C 16.1166 41.2159 1.53069
C 18.2258 40.2408 1.13093
C 19.5871 40.417 0.833894
C 17.3518 41.2902 1.00402
C 20.0605 41.6468 0.391997
C 22.1923 40.6921 -0.0633917
C 23.4997 40.7787 -0.530183
C 21.3953 41.8348 -0.0243511
C 24.0657 42.0856 -0.870162
C 26.2711 41.1764 -0.883978
C 27.5729 41.2204 -0.371474
C 25.4396 42.2933 -0.967086
C 28.1027 42.4542 -0.209017
C 11.5071 42.3659 1.67597
C 13.8778 41.8732 1.78729
C 15.1723 42.2034 1.36658
C 12.8106 42.5225 1.24894
C 15.4968 43.3627 0.556873
C 17.7618 42.5985 0.607192
C 19.1887 42.7555 0.312662
C 16.8606 43.7093 0.438015
C 19.6199 44.0422 -0.0295489
C 21.8551 43.081 -0.502637
C 23.221 43.2245 -0.84504
C 20.9841 44.2008 -0.419511
C 23.7615 44.4774 -0.829697
C 26.0445 43.5489 -0.846059
C 27.4303 43.6319 -0.557122
C 25.1191 44.6497 -0.900132
C 28.1057 44.9677 -0.681302
C 12.0886 44.4096 0.0461535
C 12.7627 45.6717 -0.272976
C 17.34 45.0559 0.198732
C 18.7535 45.1289 -0.0954035
C 16.5021 46.1943 0.143499
C 19.2966 46.3901 -0.240852
C 21.5554 45.4864 -0.462656
C 22.9179 45.5929 -0.68324
C 20.6962 46.5883 -0.48155
C 23.4639 46.8792 -0.859105
C 25.7351 45.9054 -0.966474
C 27.2089 46.1231 -0.984764
C 24.8679 47.0189 -1.04107
C 14.4247 47.665 0.311318
C 17.1953 47.4956 0.13843
C 18.5549 47.5846 -0.180343
C 16.5501 48.7144 0.202115
C 19.1061 48.8398 -0.450725
C 21.2442 47.881 -0.745872
C 22.6254 48.0516 -0.979608
C 20.4191 48.9976 -0.843312
C 23.1753 49.2649 -1.35823
C 25.3603 48.3014 -1.42745
C 24.5299 49.421 -1.60311
C 17.0306 50.0156 -0.000514799
C 18.3329 50.0332 -0.47123
C 20.9834 50.2085 -1.18902
C 22.3653 50.3929 -1.41493
C 24.2021 1.94714 -1.99058
C 18.8955 1.35944 -0.658293
C 18.4493 2.70482 -0.440927
C 20.6549 2.7173 -1.23032
C 22.0123 3.10944 -1.36226
C 19.6082 3.52997 -0.788142
C 22.1918 4.57108 -1.10002
C 24.4332 4.51527 -2.02101
C 25.6061 5.34946 -2.29185
C 23.3998 5.19052 -1.39423
C 25.948 6.56716 -1.87626
C 27.2662 7.0011 -1.9821
C 16.0218 2.55702 0.261034
C 17.2798 3.31745 0.0133879
C 14.865 3.37458 0.464133
C 17.5013 4.77056 0.184978
C 19.8144 4.78385 -0.436011
C 21.1093 5.32328 -0.596722
C 18.7033 5.43602 0.0521977
C 21.2524 6.68426 -0.341932
C 23.577 6.56646 -1.17034
C 24.8154 7.24607 -1.42197
C 22.4844 7.34088 -0.650172
C 25.0199 8.55369 -1.0091
C 27.3084 8.36088 -1.71659
C 28.5019 9.0548 -1.9487
C 26.2389 9.17141 -1.26479
C 28.457 10.4743 -1.87997
C 15.1704 4.82995 0.773073
C 16.4122 5.41912 0.683606
C 14.1337 5.70091 1.04687
C 16.5929 6.8693 0.799651
C 18.8948 6.84708 0.202791
C 20.166 7.45134 0.00557935
C 17.7864 7.58109 0.516016
C 20.2922 8.84838 0.0460837
C 22.6308 8.70413 -0.421937
C 23.8665 9.33183 -0.67555
C 21.491 9.44705 -0.147909
C 23.9793 10.7447 -0.63721
C 26.263 10.5877 -1.18115
C 27.4429 11.2751 -1.43618
C 25.1995 11.4003 -0.898566
C 27.689 12.6459 -1.39044
C 14.2784 7.11093 1.05499
C 15.4794 7.76345 0.979813
C 13.0957 7.70121 0.510271
C 15.4953 9.07541 0.598507
C 17.8959 8.979 0.46559
C 19.1311 9.61019 0.164933
C 16.6891 9.70577 0.433384
C 19.1842 11.0076 -0.00700606
C 21.6065 10.8937 -0.340204
C 22.8249 11.5319 -0.593731
C 20.4432 11.6624 -0.201269
C 22.9416 12.8863 -0.804107
C 25.3134 12.7965 -1.0163
C 26.5829 13.4927 -1.23395
C 24.1307 13.5367 -1.06383
C 26.7157 14.8911 -1.33611
C 13.1545 8.97567 0.0622814
C 14.3268 9.73481 0.224904
C 12.1053 9.484 -0.641093
C 14.3468 11.0879 -0.152891
C 16.759 11.0701 -0.0266461
C 17.9424 11.7586 -0.134842
C 15.5717 11.7504 -0.209107
C 17.9952 13.1135 -0.536861
C 20.4748 13.0258 -0.585779
C 21.7445 13.6438 -0.867068
C 19.2428 13.7041 -0.726694
C 21.7426 14.9079 -1.36549
C 24.234 14.9135 -1.3563
C 25.4957 15.6091 -1.4735
C 23.0035 15.5628 -1.63995
C 25.3967 16.9201 -1.87967
C 12.0835 10.8801 -1.03408
C 13.1376 11.7014 -0.75112
C 13.1031 13.0921 -1.03034
C 15.5835 13.0824 -0.626933
C 16.8162 13.8031 -0.761427
C 14.4223 13.742 -0.911169
C 16.9079 15.1916 -1.05438
C 19.2657 15.0396 -1.21378
C 20.5248 15.5093 -1.50959
C 18.0482 15.8734 -1.39444
C 20.5502 16.6873 -2.14683
C 22.9621 16.8856 -2.09657
C 24.1019 17.5658 -2.2361
C 21.7463 17.4233 -2.33011
C 15.7262 15.8839 -1.27868
C 18.1528 17.3082 -1.77457
C 19.4334 17.5618 -2.27749
C 7.20721 27.445 0.4359
C 9.53611 27.745 -0.0928718
C 8.44731 28.0805 0.650094
C 11.0324 29.3202 1.1312
C 0.477403 25.486 1.33937
C 2.49571 27.5473 0.964795
C 4.85876 27.8411 0.761629
C 6.11997 28.1478 1.08651
C 3.62557 28.3589 1.30475
C 6.26214 29.1736 2.00535
C 8.65391 29.1181 1.62389
C 9.91713 29.7989 1.77787
C 7.54043 29.6715 2.27652
C 10.0589 30.8813 2.59279
C 11.3571 31.3455 2.88875
C 0.0904685 26.9998 1.42032
C 1.22553 27.9899 1.5158
C 1.22947 29.3349 2.15137
C 3.7425 29.3955 2.15745
C 5.03334 29.8283 2.41548
C 2.53539 29.9576 2.58706
C 5.18181 31.0839 3.05167
C 7.67672 30.8901 2.98441
C 8.95552 31.4737 3.15717
C 6.4643 31.6579 3.20235
C 9.00192 32.8165 3.55063
C 11.3783 32.6276 3.51847
C 12.6243 33.2837 3.57118
C 10.2154 33.4067 3.73339
C 12.7548 34.6374 3.79172
C 28.4746 29.7229 2.12891
C 29.9332 30.1348 2.43926
C 0.342377 31.4269 3.04902
C 2.7307 31.2087 3.24335
C 4.04018 31.789 3.36908
C 1.60285 32.0184 3.35223
C 4.16211 33.2094 3.59126
C 6.55054 32.9701 3.58566
C 7.82895 33.6488 3.66639
C 5.40593 33.76 3.68597
C 7.91575 35.0292 3.8064
C 10.3416 34.7464 3.94888
C 11.5747 35.334 4.05829
C 9.17176 35.5835 3.9393
C 11.6288 36.6943 4.33691
C 27.9578 32.0796 2.62699
C 29.2251 32.3201 3.19022
C 29.3608 33.6511 3.42879
C 1.75487 33.4281 3.59978
C 3.0168 34.0069 3.62816
C 0.663263 34.2966 3.51449
C 3.09632 35.3971 3.52029
C 5.47798 35.2147 3.66459
C 6.77529 35.8266 3.70985
C 4.37388 35.9754 3.54551
C 6.92221 37.2564 3.62377
C 9.24961 36.9489 4.0051
C 10.5271 37.5127 4.01968
C 8.15334 37.8169 3.73331
C 10.6668 38.8967 3.68533
C 28.1832 34.3627 3.06957
C 28.2494 35.6895 2.69543
C 0.722059 35.6137 3.27269
C 1.96976 36.2201 3.30083
C 29.5059 36.3325 2.79962
C 2.13588 37.5197 2.95514
C 4.54643 37.3405 3.32016
C 5.77524 37.9896 3.38806
C 3.41291 38.1206 2.94818
C 5.97418 39.3193 3.03517
C 8.33304 39.1596 3.3584
C 9.60276 39.6971 3.33721
C 7.24158 39.9067 2.93013
C 9.82719 40.9729 2.74656
C 27.0799 36.1981 2.07042
C 27.3591 37.4134 1.3858
C 29.6693 37.6201 2.24835
C 1.02319 38.2799 2.4504
C 28.633 38.2145 1.60458
C 1.20216 39.5887 1.93342
C 3.59284 39.4332 2.47609
C 4.8701 40.0258 2.5123
C 2.49215 40.1679 2.02295
C 5.05209 41.314 2.06988
C 7.43292 41.2846 2.44579
C 8.77054 41.8262 2.37524
C 6.31304 41.9666 2.06502
C 28.8838 39.5134 1.02539
C 0.138161 40.2861 1.32797
C 2.72501 41.5495 1.7042
C 11.2065 41.3425 2.63765
C 12.3125 40.6436 3.13056
C 11.975 39.4391 3.75636
C 13.039 38.6295 4.20685
C 12.8479 37.2543 4.34004
C 14.0327 36.6094 3.91611
C 14.0307 35.261 3.64644
C 15.1856 34.5666 3.15155
C 23.8392 34.3139 2.8985
C 25.8969 33.3001 2.55168
C 14.9678 33.1928 2.96197
C 13.7084 32.5839 3.11493
C 13.7363 31.3402 2.45993
C 12.5069 30.6746 2.3376
C 12.4059 29.6037 1.37455
C 10.7286 28.4655 0.118573
C 9.77957 26.7448 -1.05288
C 4.51844 26.755 0.0207416
C 3.1024 26.4351 0.219435
C 16.4905 34.9665 2.73141
C 11.7593 27.8792 -0.643285
C 11.1533 26.8932 -1.42425
C 11.9091 25.9818 -2.08482
C 26.4502 17.853 -2.12659
C 15.2839 17.2393 -1.54562
C 14.547 15.0664 -1.13112
C 10.8284 11.2055 -1.67942
C 9.05631 9.71599 -2.49742
C 10.2535 9.91047 -1.91586
C 10.8909 8.92107 -1.16466
C 12.2063 6.61465 0.141216
C 12.889 5.43839 0.48869
C 5.00925 9.75397 -2.93675
C 6.38043 9.49321 -3.04336
C 29.3433 24.4682 1.11002
C 27.5019 20.5104 -1.90832
C 29.7168 10.9725 -2.09362
C 0.757121 9.92642 -2.29677
C 0.0085628 8.67728 -2.20283
C 28.3596 6.04863 -2.30493
C 27.9356 4.73393 -2.72315
C 26.5833 4.49269 -2.88245
C 20.2252 1.44357 -1.17472
C 26.702 48.3949 -1.87894
C 27.5963 47.3209 -1.67524
C 27.1204 49.5707 -2.49364
C 28.9202 47.4985 -2.08293
C 3.99661 42.0937 1.63731
C 4.52092 43.3763 1.24944
C 27.8884 39.9469 0.147916
C 27.2728 33.3473 2.67492
C 27.5205 30.8689 2.26627
C 25.0251 50.6586 -2.02773
C 26.3221 50.7004 -2.50623
C 26.8734 2.07873 -2.92066
C 1.58433 43.5703 0.593205
C 1.64296 42.2665 1.17711
C 0.216042 43.7432 0.102671
C 0.385129 41.6136 0.889794
C 29.3843 42.5746 0.325345
C 14.174 45.3948 -0.240572
C 15.0749 46.4106 0.0384158
C 13.4284 23.8685 -2.75958
C 13.8868 22.523 -2.57483
C 15.16 48.8103 0.382711
C 14.7154 50.1969 0.449492
C 19.7992 33.4922 2.94636
C 21.1139 33.9704 3.22213
C 13.0933 43.4685 0.34127
C 14.3748 44.0817 0.113897
C 26.0724 3.16713 -2.90845
C 24.7738 3.16829 -2.35492
C 22.8867 1.88849 -1.58937
