614
29.8051 49.9906  0
C 29.1204 45.16 -1.31571
C 0.341722 45.9575 -1.70056
C 2.33601 43.3833 -0.305116
C 1.28842 44.0738 -0.82884
C 1.57073 45.3536 -1.36096
C 2.76877 46.0437 -1.18705
C 3.59534 44.0395 -0.18804
C 3.86456 45.3097 -0.663903
C 5.02594 46.0513 -0.415523
C 5.97623 44.0688 0.563644
C 6.10639 45.4452 0.224381
C 7.31684 46.2178 0.482635
C 9.61276 43.5737 1.88898
C 8.39303 44.176 1.29216
C 8.46231 45.5482 0.946706
C 9.61422 46.3524 0.957075
C 10.8159 45.7547 1.44225
C 12.1159 46.5027 1.35706
C 27.5784 47.0233 -1.57174
C 26.3409 49.7464 -2.32233
C 27.6671 50.1203 -2.22257
C 0.244039 47.3146 -1.85029
C 28.756 47.8672 -1.81497
C 28.8037 49.2952 -2.02724
C 0.214331 50.0113 -2.092
C 2.73534 47.4115 -1.33922
C 1.48959 47.9983 -1.68153
C 1.45454 49.3753 -1.86255
C 2.64234 50.0494 -1.71449
C 5.06759 47.4636 -0.563152
C 3.92293 48.0455 -1.0847
C 3.88907 49.4329 -1.41837
C 5.0433 50.201 -1.15921
C 7.34929 47.5954 0.189313
C 6.18874 48.2169 -0.323129
C 6.14489 49.5645 -0.618373
C 7.33712 50.3418 -0.633083
C 9.70427 47.7549 0.648194
C 8.52481 48.3851 0.232544
C 8.46304 49.7272 -0.0479433
C 9.63737 50.4571 0.0671348
C 12.1469 47.8896 1.01889
C 10.9286 48.481 0.705876
C 10.8692 49.872 0.469568
C 12.0652 50.6151 0.453686
C 13.4433 48.6095 0.873005
C 13.2652 49.9988 0.656202
C 27.7671 1.54067 -2.40349
C 26.5326 2.11536 -2.53817
C 0.316074 1.39116 -2.39263
C 28.9501 2.17345 -2.54211
C 2.70803 1.43086 -1.98966
C 1.58798 2.04669 -2.50615
C 1.54387 3.36335 -2.99843
C 2.74555 4.04134 -3.10718
C 5.07788 1.49043 -1.66257
C 3.92789 2.13475 -2.09067
C 3.91698 3.45229 -2.61245
C 5.11227 4.16554 -2.59447
C 7.35302 1.68074 -1.06029
C 6.26021 2.26744 -1.61561
C 6.26908 3.58317 -2.10475
C 7.37101 4.39304 -1.9133
C 9.65826 1.84077 -0.365243
C 8.52357 2.4482 -0.881121
C 8.46995 3.7794 -1.3254
C 9.62597 4.56491 -1.20957
C 12.0046 1.99999 0.186757
C 10.8129 2.59697 -0.21615
C 10.756 3.94816 -0.581401
C 11.9283 4.67345 -0.651101
C 14.4336 2.15349 0.117089
C 13.2341 2.76851 0.0956276
C 13.1846 4.09792 -0.345535
C 0.415508 8.2643 -3.74107
C 2.70454 5.382 -3.45257
C 1.48567 6.02036 -3.66693
C 1.42347 7.34414 -4.00765
C 2.64743 7.9883 -4.17069
C 5.11819 5.53055 -2.96735
C 3.89134 6.08334 -3.37356
C 3.87499 7.42998 -3.83628
C 4.93768 8.27233 -3.5998
C 7.41008 5.73587 -2.2612
C 6.25167 6.33427 -2.86738
C 6.17 7.72635 -3.14472
C 7.28757 8.58194 -2.94909
C 9.65736 5.95366 -1.61915
C 8.5185 6.60149 -2.12052
C 8.56791 7.9422 -2.58056
C 9.81624 8.51878 -2.60957
C 12.09 5.89946 -1.25916
C 10.8977 6.53276 -1.72901
C 10.9536 7.75623 -2.22385
C 14.1856 19.9053 0.178888
C 15.2573 20.5381 0.73901
C 17.7837 17.8349 0.0964704
C 16.6557 18.5158 0.0889567
C 16.5217 19.8396 0.608837
C 17.6603 20.5714 0.986752
C 20.1096 17.8177 0.418246
C 18.9022 18.5362 0.614346
C 18.8533 19.8525 0.9459
C 20.0624 20.493 1.17873
C 22.4765 17.8457 0.323808
C 21.3128 18.4768 0.617631
C 21.2804 19.7981 1.08172
C 22.4795 20.5487 1.17392
C 24.7751 17.8545 0.0767203
C 23.6294 18.5611 0.57923
C 23.6702 19.9168 0.891119
C 24.894 20.5583 0.845261
C 26.0263 18.5746 -0.010492
C 26.1769 19.9101 0.531889
C 27.3841 20.6126 0.722446
C 11.466 24.3532 1.96929
C 12.7552 24.712 1.5567
C 15.1507 21.8859 1.13779
C 13.7985 22.5163 1.08346
C 13.8477 23.9164 1.28121
C 15.1017 24.6683 1.21215
C 17.5927 21.8833 1.34559
C 16.3602 22.614 1.32618
C 16.3103 23.999 1.23932
C 17.5651 24.7087 1.26026
C 20.0343 21.8898 1.42461
C 18.8031 22.5719 1.44896
C 18.7791 23.9719 1.45313
C 19.99 24.6818 1.55428
C 22.442 21.9151 1.46875
C 21.2144 22.5946 1.55251
C 21.1886 23.9703 1.63176
C 22.362 24.6965 1.62466
C 24.8436 21.9205 1.16755
C 23.6055 22.5885 1.46796
C 23.5474 23.9507 1.62792
C 24.7554 24.6553 1.84472
C 27.2169 21.9417 1.24915
C 25.9704 22.623 1.41317
C 25.9389 24.0061 1.70921
C 27.0775 24.7328 2.01279
C 28.2924 22.7356 1.49057
C 28.2396 24.0537 1.89708
C 29.5782 24.5742 1.99911
C 12.8937 26.1224 1.64927
C 11.7293 26.703 2.14512
C 13.1681 29.2608 1.77769
C 15.1573 26.0832 1.12328
C 13.991 26.8139 1.23993
C 14.0175 28.1906 1.31774
C 15.2414 28.8069 1.00436
C 17.5882 26.0527 1.11067
C 16.3932 26.7621 1.02923
C 16.4035 28.1464 0.960833
C 17.5789 28.8452 1.02274
C 19.9341 26.0501 1.35469
C 18.7849 26.7581 1.16415
C 18.8181 28.1952 1.00855
C 20.0437 28.9135 1.02154
C 22.3363 26.0683 1.59377
C 21.1621 26.7793 1.33893
C 21.1807 28.1886 1.25916
C 22.3551 28.9472 1.55255
C 24.7385 25.983 2.02197
C 23.5542 26.7474 1.78383
C 23.5174 28.1782 1.78207
C 24.6972 28.844 1.9192
C 27.1549 26.0848 2.18859
C 25.9146 26.713 2.10123
C 25.8823 28.0703 2.03554
C 27.0802 28.6736 2.06093
C 29.7522 25.9689 2.11811
C 28.5081 26.7428 2.1557
C 28.3736 28.0994 2.06841
C 15.1931 30.1767 1.26844
C 13.919 30.5428 1.80677
C 15.4252 33.135 1.99357
C 17.5874 30.2498 0.971115
C 16.3608 30.8596 1.29971
C 16.3967 32.1613 1.64044
C 17.6965 32.7875 1.67318
C 20.0621 30.2884 0.93117
C 18.8311 30.9165 0.945458
C 18.8796 32.236 1.33665
C 19.9471 33.067 1.5491
C 22.4586 30.3268 1.4853
C 21.2699 31.0518 1.22055
C 21.2213 32.4722 1.45591
C 22.4512 33.226 1.57798
C 24.8176 30.211 1.86766
C 23.655 31.0466 1.74235
C 23.6465 32.4363 1.63096
C 24.8773 32.9975 1.45477
C 27.2226 30.0743 1.90832
C 26.0213 30.7991 1.86976
C 26.0964 32.1514 1.59247
C 10.2588 9.79142 -2.96434
C 1.05694 9.53079 -3.84821
C 0.631051 10.6955 -3.29063
C 1.64123 11.5913 -2.92083
C 4.7501 9.64427 -3.53713
C 3.45335 10.1475 -3.63584
C 3.01077 11.3333 -3.05437
C 4.02097 12.2428 -2.76358
C 7.13886 10.0695 -3.06191
C 5.75874 10.5478 -3.14703
C 5.42851 11.9019 -2.94038
C 6.37268 12.8044 -2.61866
C 9.58988 10.9709 -3.31481
C 8.16348 11.0718 -3.04671
C 7.68302 12.4337 -2.8113
C 8.65805 13.4922 -2.7734
C 10.4489 12.0606 -3.56442
C 9.9851 13.3607 -3.21341
C 10.8543 14.4485 -3.27364
C 13.2346 15.0468 -3.14762
C 28.0868 15.0414 -2.34745
C 1.21563 12.8078 -2.3923
C 29.533 13.1125 -2.33487
C 29.335 14.518 -2.26163
C 0.589703 15.4388 -1.92156
C 3.62781 13.4515 -2.27172
C 2.25817 13.7373 -2.15465
C 1.8921 15.0638 -1.80091
C 2.92429 15.9398 -1.52966
C 6.00239 14.0819 -2.29635
C 4.65747 14.4136 -2.03516
C 4.27315 15.6454 -1.55544
C 5.2538 16.5851 -1.22832
C 8.30489 14.7721 -2.28786
C 6.94977 15.04 -1.9959
C 6.57474 16.3058 -1.57041
C 7.54429 17.2872 -1.19963
C 10.5333 15.6657 -2.62144
C 9.24212 15.8322 -2.10746
C 8.84673 17.061 -1.57532
C 9.86262 18.0563 -1.31188
C 12.9266 16.1342 -2.36823
C 11.5622 16.527 -2.17571
C 11.1935 17.6933 -1.45044
C 12.1835 18.5098 -1.02667
C 13.8912 16.8023 -1.58182
C 13.4268 18.0345 -1.076
C 14.412 18.6923 -0.409249
C 27.9583 16.4667 -2.22261
C 26.7056 16.861 -1.69155
C 26.9442 17.9709 -0.861204
C 0.383209 16.8273 -1.64478
C 28.9562 17.3024 -1.81041
C 28.3339 18.2718 -0.969785
C 29.238 19.1026 -0.285463
C 2.55713 17.2608 -0.995172
C 1.28226 17.6571 -1.01643
C 0.803928 18.8778 -0.491961
C 1.76583 19.7848 -0.0594107
C 4.89173 17.8863 -0.782017
C 3.5332 18.2173 -0.749475
C 3.13395 19.4774 -0.250442
C 4.10206 20.3314 0.222099
C 7.18531 18.5171 -0.719724
C 5.85555 18.8031 -0.517977
C 5.47352 20.0172 0.0521163
C 6.45458 20.904 0.52926
C 9.51727 19.2259 -0.681435
C 8.15336 19.4478 -0.415832
C 7.79925 20.5672 0.291457
C 8.80992 21.336 0.881858
C 11.8451 19.7445 -0.432886
C 10.5048 20.0732 -0.201143
C 10.2028 21.1497 0.601203
C 11.2383 21.955 1.24227
C 12.9188 20.4501 0.247941
C 12.6628 21.6905 0.864157
C 28.8149 20.2119 0.451956
C 1.44372 20.9169 0.675893
C 29.8825 21.1249 0.885834
C 29.6058 22.3732 1.30403
C 0.663179 23.4557 1.62011
C 3.70959 21.5365 0.79097
C 2.42142 21.8697 1.0017
C 2.03749 23.2116 1.45041
C 3.01824 24.199 1.77846
C 6.06961 22.0148 1.27181
C 4.70502 22.372 1.31918
C 4.31074 23.5719 2.01403
C 5.30894 24.3135 2.71522
C 8.40536 22.3253 1.76116
C 7.02397 22.5877 2.06413
C 6.63923 23.66 2.82679
C 10.7437 23.119 1.93001
C 9.35839 23.2736 2.21963
C 8.91968 24.4146 2.91945
C 16.0853 34.3658 2.18158
C 15.6141 35.6739 2.26633
C 16.709 36.6782 2.2114
C 19.8263 34.4373 1.77861
C 18.5539 34.9342 1.94425
C 18.1775 36.257 2.0982
C 19.2304 37.1942 2.07698
C 20.9398 35.3468 1.732
C 20.5947 36.7225 1.8858
C 21.6272 37.6789 1.68058
C 24.6854 35.5069 0.885541
C 23.3166 35.7899 1.25754
C 22.9299 37.2341 1.35995
C 23.912 38.2337 1.12548
C 26.7846 36.3206 -0.125587
C 25.4872 36.562 0.352299
C 25.0815 37.8826 0.523522
C 25.9649 38.96 0.146134
C 27.2056 38.6193 -0.329717
C 28.3754 39.4265 -0.146522
C 16.1437 40.8513 2.79402
C 18.9152 38.533 2.17154
C 17.6272 38.9693 2.4018
C 17.4095 40.3536 2.51796
C 18.3931 41.2744 2.26227
C 21.2792 39.0653 1.6589
C 19.9432 39.4344 1.96026
C 19.6825 40.8036 2.01936
C 20.5929 41.8134 1.59829
C 23.5742 39.6087 1.15089
C 22.2331 40.0573 1.39743
C 21.9155 41.4007 1.36558
C 22.8482 42.366 0.960693
C 25.7661 40.2895 0.386301
C 24.5062 40.6244 0.802554
C 24.1743 41.9605 0.6263
C 25.1388 42.8581 0.139432
C 28.2052 40.8044 0.0892917
C 26.8492 41.2086 0.205374
C 26.4704 42.529 0.0455182
C 27.4265 43.4357 -0.341825
C 29.3063 41.7226 0.0301428
C 28.7917 43.0303 -0.328093
C 29.6753 43.9489 -0.799617
C 15.836 42.2363 2.93145
C 18.1195 42.6777 2.29014
C 16.7877 43.1418 2.50116
C 16.4428 44.4472 2.17345
C 17.2856 45.2891 1.54609
C 20.3325 43.1771 1.46715
C 19.0402 43.6053 1.7301
C 18.5934 44.9255 1.41257
C 19.4598 45.8394 0.786959
C 22.5105 43.6817 0.689289
C 21.2036 44.1299 0.932977
C 20.7887 45.4114 0.575221
C 21.5982 46.1792 -0.291887
C 24.6858 44.1415 -0.167793
C 23.3879 44.549 0.0633328
C 22.9255 45.7282 -0.534922
C 23.8546 46.5768 -1.25149
C 26.9385 44.7272 -0.73175
C 25.634 45.1421 -0.565111
C 25.2081 46.3016 -1.15479
C 26.1729 47.3146 -1.63998
C 27.871 45.6667 -1.22262
C 16.7711 46.5361 1.10928
C 15.4152 46.9431 1.26747
C 14.9072 48.1758 0.817373
C 15.9491 48.9951 0.312547
C 19.0078 47.0114 0.254123
C 17.683 47.4009 0.473542
C 17.2668 48.6582 0.0397124
C 18.172 49.6525 -0.567619
C 21.1002 47.334 -0.810314
C 19.7909 47.8139 -0.574027
C 19.3662 49.1032 -1.06106
C 20.1752 49.6982 -1.99607
C 23.2814 47.7127 -1.81501
C 21.9096 47.9681 -1.70957
C 21.3837 49.0807 -2.3411
C 22.21 50.0584 -2.88574
C 25.5871 48.5822 -2.06856
C 24.1682 48.74 -2.30353
C 23.5809 49.9373 -2.79393
C 24.2969 1.1326 -2.91253
C 18.4352 2.31706 -1.18667
C 21.5736 1.29886 -2.8321
C 20.287 1.12879 -2.25576
C 19.6474 2.32312 -1.85278
C 20.3417 3.53357 -1.96444
C 23.7128 2.3685 -2.8866
C 22.307 2.44571 -2.82025
C 21.7532 3.62707 -2.3714
C 22.5421 4.75835 -2.33695
C 25.9538 3.39524 -2.67322
C 24.5352 3.46307 -2.77608
C 23.9195 4.71687 -2.56676
C 24.6632 5.90606 -2.46425
C 26.6727 4.62102 -2.73946
C 26.0614 5.88436 -2.66776
C 26.7381 7.1281 -2.80513
C 28.0878 7.11903 -3.14891
C 28.8906 8.27903 -3.33067
C 15.7545 2.55256 -0.184878
C 14.1663 4.99241 -0.827395
C 17.6934 3.56877 -1.10895
C 16.3442 3.69224 -0.701474
C 15.5792 4.84066 -0.882756
C 16.3059 6.04423 -1.20925
C 19.7676 4.76767 -1.70829
C 18.4386 4.79236 -1.34194
C 17.6965 6.00765 -1.37176
C 18.4403 7.16198 -1.50688
C 21.91 5.9537 -2.03011
C 20.5311 5.92404 -1.75252
C 19.8615 7.15963 -1.6545
C 20.577 8.35805 -1.83661
C 24.0261 7.1404 -2.32919
C 22.6251 7.12623 -2.07425
C 21.9296 8.35498 -1.9747
C 22.7277 9.55694 -1.98578
C 26.0839 8.36555 -2.64513
C 24.7401 8.30684 -2.37554
C 24.1009 9.5172 -2.22952
C 24.8274 10.736 -2.14314
C 28.2602 9.59569 -3.10528
C 26.8352 9.59847 -2.88737
C 26.268 10.8092 -2.42564
C 27.0007 12.0745 -2.26242
C 29.0566 10.7727 -2.93599
C 28.4606 12.0458 -2.50821
C 13.4868 6.12764 -1.28918
C 12.1853 8.51001 -2.39558
C 15.6235 7.22359 -1.56292
C 14.2194 7.2171 -1.67917
C 13.5411 8.38354 -2.16855
C 14.2924 9.56397 -2.44245
C 17.7404 8.37629 -1.6901
C 16.3546 8.40226 -1.78416
C 15.6492 9.59086 -2.06078
C 16.5045 10.7972 -2.14549
C 19.8553 9.56985 -1.77934
C 18.4627 9.57691 -1.79951
C 17.855 10.7625 -1.8633
C 18.488 11.9972 -1.66076
C 21.9726 10.7361 -1.79344
C 20.5881 10.7741 -1.62501
C 19.901 11.9555 -1.51048
C 20.5464 13.1885 -1.37755
C 24.1251 11.9282 -1.84296
C 22.7284 11.9163 -1.70523
C 21.9845 13.1317 -1.36984
C 22.6746 14.3134 -1.0007
C 26.2335 13.2674 -1.96197
C 24.8363 13.1115 -1.59894
C 24.1149 14.2856 -1.20929
C 24.7713 15.4869 -0.988625
C 26.778 14.5127 -2.06684
C 25.9792 15.6559 -1.63379
C 11.667 9.73541 -2.94809
C 13.7796 10.7142 -3.11357
C 12.4233 10.7766 -3.40481
C 15.8468 12.0189 -2.52795
C 14.6409 11.8565 -3.21157
C 14.059 13.0059 -3.65294
C 14.4309 14.2595 -3.0119
C 17.821 13.1965 -1.71843
C 16.4488 13.2273 -2.1991
C 15.6589 14.4238 -2.32039
C 16.1745 15.6137 -1.55591
C 19.8274 14.4132 -1.18471
C 18.3651 14.4069 -1.27521
C 17.5416 15.5436 -1.02711
C 18.2331 16.6014 -0.402676
C 21.9626 15.4856 -0.611736
C 20.5723 15.5222 -0.57499
C 19.7515 16.5581 -0.174562
C 24.2178 16.5649 -0.339524
C 22.7543 16.5775 -0.202956
C 15.3409 16.7287 -1.22192
C 9.65228 25.5953 2.92332
C 2.58597 25.5886 2.06725
C 3.58562 26.7329 2.28768
C 5.5872 25.6609 3.07938
C 4.93192 26.7833 2.64474
C 5.64585 27.9754 2.75292
C 9.06333 26.8421 3.09808
C 7.71271 26.9146 3.31922
C 7.076 28.0836 3.00193
C 7.82269 29.2534 2.93429
C 11.1857 27.9755 2.36555
C 9.8398 28.0008 2.82253
C 9.20495 29.2142 2.86284
C 9.93473 30.4698 2.74707
C 11.8598 29.1968 2.1502
C 11.2974 30.4855 2.43127
C 11.999 31.7183 2.41907
C 13.3267 31.8 2.07072
C 14.0545 33.0379 2.13908
C 1.28382 26.4449 2.04486
C 29.3407 29.0727 1.81391
C 2.97494 27.9719 2.11684
C 1.61843 27.8365 2.03272
C 0.903899 29.0336 1.84128
C 1.5963 30.2757 1.69484
C 5.00083 29.1627 2.45095
C 3.6071 29.1597 2.17527
C 2.96578 30.3271 1.86881
C 3.68936 31.5696 1.97302
C 7.12054 30.4131 2.76311
C 5.69166 30.3851 2.55123
C 5.03156 31.5668 2.32795
C 5.64988 32.8126 2.36996
C 9.19101 31.6333 2.7803
C 7.76781 31.6797 2.72719
C 7.01416 32.8549 2.65895
C 7.73042 34.0423 2.5992
C 11.3346 32.9754 2.61276
C 9.91621 32.8575 2.66472
C 9.17963 34.042 2.67882
C 9.83258 35.2974 2.73161
C 13.4456 34.3128 2.37674
C 12.0209 34.227 2.60345
C 11.2451 35.4068 2.67066
C 11.8967 36.6273 2.76158
C 14.1865 35.6354 2.40893
C 13.3094 36.7449 2.54007
C 28.6158 30.3087 1.68701
C 27.2321 32.9692 1.33997
C 0.934825 31.4967 1.5253
C 29.294 31.5505 1.53968
C 28.6041 32.7536 1.2562
C 29.3957 33.8736 0.740124
C 3.00389 32.7702 1.70612
C 1.62279 32.6924 1.41885
C 0.975797 33.8972 1.07659
C 1.69252 35.1008 0.96896
C 5.02188 34.0121 2.10588
C 3.68466 34.0356 1.7503
C 3.03325 35.1806 1.30169
C 3.70453 36.365 1.24074
C 7.06143 35.2256 2.26799
C 5.70868 35.224 1.98187
C 5.03422 36.4004 1.6354
C 5.60729 37.6645 1.79969
C 9.07566 36.4519 2.7008
C 7.68752 36.441 2.4788
C 6.97981 37.6111 2.26792
C 7.59272 38.7956 2.59346
C 11.148 37.7745 2.90696
C 9.769 37.6446 2.84252
C 8.96896 38.8224 2.85861
C 9.48016 40.0527 2.97399
C 11.6554 39.0386 3.0608
C 10.865 40.2192 3.02643
C 26.668 34.167 0.833289
C 28.7758 34.9991 0.239962
C 27.4341 35.155 0.277935
C 1.07037 36.254 0.411421
C 29.585 36.0959 -0.03205
C 28.9719 37.2456 -0.435981
C 29.4812 38.5453 -0.190044
C 3.03082 37.5704 0.829892
C 1.72377 37.5 0.435704
C 0.969147 38.6811 0.209609
C 1.46938 39.9482 0.379559
C 4.928 38.9048 1.43084
C 3.58787 38.8357 0.91778
C 2.85435 40.0522 0.642367
C 3.28398 41.4134 0.574656
C 6.97778 39.9846 2.31401
C 5.71183 40.0564 1.61778
C 8.8638 41.2747 2.69294
C 7.5695 41.2139 2.26004
C 0.890317 41.3117 0.149512
C 17.4873 34.1138 1.98044
C 10.8713 25.5733 2.34507
C 6.97308 25.8079 3.47383
C 7.62166 24.5445 3.28111
C 15.574 17.9286 -0.451608
C 12.1425 14.2892 -3.69444
C 12.6421 13.0278 -3.95455
C 11.8251 11.9502 -3.79277
C 2.42947 9.35031 -4.03703
C 25.619 50.9924 -2.6134
C 2.09625 42.1676 0.206101
C 9.78541 42.2865 2.47527
C 27.5903 37.3069 -0.529472
C 0.294275 5.39714 -3.4333
C 0.391287 4.05484 -3.20668
C 28.0424 4.65401 -2.8827
C 28.9242 3.52653 -2.80726
C 28.7185 5.85325 -3.19699
C 14.3983 50.7607 0.36469
C 17.8629 1.09625 -0.643325
C 10.7933 44.3902 1.90626
C 11.0626 41.6515 2.72643
C 12.167 42.382 2.72944
C 15.6767 50.2739 0.168374
C 16.5874 1.35527 -0.137098
C 13.227 45.8797 2.02138
C 14.6166 46.0789 1.97199
C 15.2487 44.901 2.56506
C 11.9238 43.7469 2.34818
C 13.4596 41.8029 2.98007
C 22.347 34.7609 1.54494
C 25.3034 34.2519 0.993105
C 12.9996 44.5942 2.53739
C 14.2201 44.0251 2.91855
C 14.5164 42.6938 3.11917
C 4.70713 43.3643 0.346295
C 4.52211 42.058 0.720005
C 5.62049 41.4041 1.18262
C 13.7573 40.4124 2.979
C 15.1086 39.9586 2.83136
C 15.2087 38.5537 2.60261
C 16.5117 38.0265 2.36124
C 7.09275 43.4354 1.11429
C 6.83204 42.1046 1.47359
C 12.9969 39.2235 2.95918
C 13.8379 38.0783 2.69987
